 14

      N         0.000000         0.000000         -2.273444
      C         0.000000        -0.000000         -0.940065
      C         0.000000        -1.236305         -0.217610
      C         0.000000         1.236305         -0.217610
      C         0.000000        -1.215973          1.146314
      C         0.000000         1.215973          1.146314
      C         0.000000         0.000000          1.839613
      H         0.000000        -0.879211         -2.814110
      H         0.000000         0.879211         -2.814110
      H         0.000000        -2.154926         -0.764141
      H         0.000000         2.154926         -0.764141
      H         0.000000        -2.138202          1.692303
      H         0.000000         2.138202          1.692303
      H         0.000000         0.000000          2.912116
