14

N    -0.000176517    -0.000162278    -2.31095
C    -0.000172835    -0.000208671    -0.939665
C    -0.000144391    -1.24817    -0.24997
C    -0.000197562    1.24771    -0.249886
C    -0.000140865    -1.23375    1.1726
C    -0.000193418    1.23319    1.17268
C    -0.000165298    -0.000303214    1.85483
H    -0.000159359    -0.870143    -2.82367
H    -0.000196419    0.869853    -2.82362
H    -0.00012627    -2.16841    -0.798156
H    -0.000218651    2.16798    -0.798009
H    -0.000119779    -2.15442    1.72069
H    -0.000211556    2.15382    1.72084
H    -0.000162392    -0.000339569    2.92939
