14

N    -0.0299576    -2.28505    -1.27315e-06
C    0.0152109    -0.961993    -1.89136e-06
C    -1.22934    -0.226607    -1.80326e-06
C    1.24649    -0.211209    -2.65038e-06
C    -1.21269    1.13575    -2.42681e-06
C    1.21708    1.15308    -3.25882e-06
C    -0.000976373    1.83965    -3.15179e-06
H    -1.17829    -2.92775    -5.84455e-07
H    0.873896    -2.78224    -1.35897e-06
H    -2.14242    -0.782418    -1.24486e-06
H    2.17676    -0.745062    -2.72839e-06
H    -2.13593    1.6828    -2.36578e-06
H    2.1363    1.70607    -3.82231e-06
H    -0.0091401    2.91081    -3.62824e-06
