14

N    -0.000127405    -0.00014805    -2.35057
C    -0.000128385    -0.000141685    -1.00578
C    -0.000103549    -1.19254    -0.253795
C    -0.00015431    1.19227    -0.253807
C    -0.000104928    -1.17579    1.17917
C    -0.000154976    1.17553    1.17916
C    -0.000130464    -0.000127947    1.89589
H    -0.000108474    -0.871857    -2.87177
H    -0.000145573    0.871556    -2.87178
H    -8.30426e-05    -2.13927    -0.753676
H    -0.000174106    2.13899    -0.753697
H    -8.50969e-05    -2.12443    1.68266
H    -0.000175527    2.12417    1.68264
H    -0.000131225    -0.000122884    2.96503
