14

N    -1.11379e-05    -9.18642e-06    -2.32163
C    -1.16733e-05    -1.02631e-05    -0.937755
C    -1.03086e-05    -1.23474    -0.209155
C    -1.35985e-05    1.23472    -0.209153
C    -1.08487e-05    -1.22709    1.15227
C    -1.41214e-05    1.22706    1.15227
C    -1.2754e-05    -1.24227e-05    1.83807
H    -0.872767    -9.9388e-06    -2.84898
H    0.872746    -7.61346e-06    -2.84898
H    -8.87585e-06    -2.14463    -0.771032
H    -1.4592e-05    2.14461    -0.771028
H    -9.84244e-06    -2.14257    1.70835
H    -1.55599e-05    2.14255    1.70835
H    -1.31745e-05    -1.32581e-05    2.91181
