14

N    2.95791e-06    5.13704e-05    -2.3198
C    1.82358e-06    2.93703e-05    -0.936941
C    1.76663e-07    -1.23511    -0.210695
C    2.27898e-06    1.23514    -0.210655
C    -9.32617e-07    -1.2275    1.14955
C    1.15675e-06    1.22749    1.14959
C    -4.49925e-07    -1.47233e-05    1.83471
H    -0.84943    6.03366e-05    -2.83793
H    0.849437    5.88907e-05    -2.83793
H    -1.37228e-07    -2.14487    -0.771968
H    3.51364e-06    2.14492    -0.7719
H    -2.16723e-06    -2.14338    1.70438
H    1.48109e-06    2.14335    1.70445
H    -1.33037e-06    -3.17993e-05    2.9081
