14

N    -2.35569    0.0906571    -0.000864107
C    -0.937886    -0.00844537    -0.000820701
C    -0.226077    -0.0076963    -1.20208
C    -0.2262    -0.00839689    1.20051
C    1.15783    -0.000328818    -1.19518
C    1.15771    -0.00102543    1.19376
C    1.85898    0.0046911    -0.000674237
H    -2.7469    -0.368016    -0.82936
H    -2.74699    -0.368498    0.827325
H    -0.753663    -0.0133463    -2.13646
H    -0.753881    -0.0145908    2.13483
H    1.68835    -0.000585444    -2.12887
H    1.68814    -0.0018256    2.12751
H    2.93142    0.012245    -0.000617343
