14

N    0    3.36199e-07    -2.27062
C    0    2.43856e-07    -0.940528
C    0    -1.23771    -0.217529
C    0    1.23771    -0.217529
C    0    -1.21705    1.14511
C    0    1.21705    1.14511
C    0    5.08717e-08    1.83918
H    0    -0.874654    -2.81017
H    0    0.874655    -2.81017
H    0    -2.15621    -0.764463
H    0    2.15621    -0.764463
H    0    -2.13899    1.69146
H    0    2.13899    1.69146
H    0    -2.358e-08    2.91157
