14

N    -1.71941e-07    -2.37964e-07    -2.27377
C    -1.87009e-07    -2.6699e-07    -0.943579
C    -1.56712e-07    -1.24029    -0.218568
C    -2.24861e-07    1.24029    -0.218568
C    -1.59486e-07    -1.21905    1.14751
C    -2.20779e-07    1.21905    1.14751
C    -1.87324e-07    -3.19497e-07    1.84329
H    -1.42251e-07    -0.874657    -2.81558
H    -1.88601e-07    0.874656    -2.81558
H    -1.3815e-07    -2.16015    -0.765305
H    -2.51656e-07    2.16015    -0.765305
H    -1.38504e-07    -2.14181    1.6948
H    -2.43197e-07    2.14181    1.6948
H    -1.81672e-07    -3.39005e-07    2.91674
