14

N    -6.46771e-09    -5.44674e-09    -2.27286
C    -1.52487e-09    -4.65305e-09    -0.943502
C    1.86315e-09    -1.23993    -0.218654
C    4.77397e-10    1.23993    -0.218654
C    -4.94941e-09    -1.2194    1.14698
C    -5.123e-09    1.2194    1.14698
C    -3.49898e-09    -2.98946e-09    1.84288
H    -4.85215e-09    -0.874587    -2.81333
H    -1.22879e-08    0.874587    -2.81333
H    8.83551e-10    -2.1594    -0.765972
H    -6.53275e-10    2.1594    -0.765972
H    -1.14682e-08    -2.14231    1.69379
H    -1.08144e-08    2.14231    1.69379
H    -1.12794e-09    -2.34862e-09    2.91625
