14

N    -0.0194476    -2.35199    0
C    0.0241404    -1.03365    0
C    -1.1844    -0.261236    0
C    1.2166    -0.23712    0
C    -1.16913    1.16662    0
C    1.18113    1.1889    0
C    0.00146183    1.89927    0
H    -1.26331    -3.00591    0
H    0.884091    -2.83826    0
H    -2.12396    -0.770527    0
H    2.17045    -0.724296    0
H    -2.11826    1.66991    0
H    2.12203    1.70445    0
H    -0.00918484    2.96865    0
