14

N    -2.32018    0.0499546    3.96642e-16
C    -0.939266    -0.0206768    4.39585e-16
C    -0.246059    -0.00631214    -1.24527
C    -0.246059    -0.00631214    1.24527
C    1.17451    0.00234497    -1.23199
C    1.17451    0.00234497    1.23199
C    1.85905    0.00418128    -6.29509e-16
H    -2.79304    -0.273661    -0.837385
H    -2.79304    -0.273661    0.837385
H    -0.793791    0.00485862    -2.16485
H    -0.793791    0.00485862    2.16485
H    1.72394    0.00778256    -2.15111
H    1.72394    0.00778256    2.15111
H    2.93299    0.0132428    -7.28685e-16
