 14

      N        -2.383439         0.000293         -0.197981
      C        -0.927635        -0.023573         -0.087373
      C        -0.187706         0.114788         -1.255210
      C        -0.252586        -0.135564          1.127585
      C         1.196818         0.127407         -1.211175
      C         1.129951        -0.110040          1.167288
      C         1.858042         0.018897         -0.002454
      H        -2.698651        -0.967054          0.039982
      H        -2.701090         0.504986          0.634191
      H        -0.706011         0.218083         -2.187255
      H        -0.811870        -0.247465          2.036999
      H         1.757582         0.232542         -2.120400
      H         1.637724        -0.196178          2.109558
      H         2.931112         0.035230          0.029633
