14

N    -0.00180518    -0.00257082    -2.32111
C    -0.00187779    -0.00263941    -0.937221
C    -0.00147698    -1.23717    -0.212299
C    -0.00235468    1.23182    -0.212176
C    -0.00155094    -1.22993    1.14792
C    -0.00242346    1.22444    1.14804
C    -0.00202314    -0.0027767    1.83297
H    -0.868386    -0.00285327    -2.83803
H    0.86483    -0.00223713    -2.83794
H    -0.00112411    -2.14686    -0.774043
H    -0.00264861    2.14156    -0.77383
H    -0.00125421    -2.14639    1.70167
H    -0.0027783    2.14085    1.70188
H    -0.00207945    -0.0028299    2.90627
