14

N    -0.001585    -0.00248442    -2.32012
C    -0.001686    -0.00250703    -0.936611
C    -0.00133325    -1.23712    -0.211957
C    -0.00214455    1.23208    -0.211916
C    -0.00143495    -1.2298    1.1482
C    -0.00224141    1.22472    1.14824
C    -0.00188817    -0.0025523    1.83312
H    -0.866106    -0.00276002    -2.83767
H    0.863012    -0.00219189    -2.83755
H    -0.000993384    -2.14667    -0.773916
H    -0.00240238    2.14165    -0.773846
H    -0.00117425    -2.14625    1.70186
H    -0.00258293    2.14115    1.70193
H    -0.00196651    -0.00256984    2.90637
