14

N    -0.00170391    -0.00238728    -2.32245
C    -0.00178329    -0.00251216    -0.938151
C    -0.00140631    -1.23675    -0.212102
C    -0.00224353    1.23159    -0.211879
C    -0.00148669    -1.22978    1.14814
C    -0.00231909    1.22438    1.14836
C    -0.00194218    -0.00276223    1.83383
H    -0.870054    -0.00263539    -2.83701
H    0.866705    -0.00204633    -2.83691
H    -0.00106552    -2.14675    -0.772699
H    -0.00252007    2.14169    -0.772312
H    -0.00120719    -2.14726    1.70044
H    -0.00266193    2.14176    1.70083
H    -0.00200371    -0.00285908    2.90736
