 14

      N        -0.006146        -2.279019          0.000000
      C         0.006576        -0.946478          0.000000
      C        -1.232258        -0.220195          0.000000
      C         1.241734        -0.213101          0.000000
      C        -1.215028         1.143310          0.000000
      C         1.216260         1.150342          0.000000
      C        -0.001602         1.842682          0.000000
      H        -1.040804        -2.886869          0.000000
      H         0.859774        -2.836090          0.000000
      H        -2.148843        -0.769604          0.000000
      H         2.163847        -0.754260          0.000000
      H        -2.139936         1.685822          0.000000
      H         2.136952         1.699483          0.000000
      H        -0.004370         2.915177          0.000000
