14

N    -2.84508e-08    0.0111963    -2.3197
C    -3.33382e-08    0.0113954    -0.928016
C    -3.12856e-08    -1.19435    -0.20898
C    -4.04399e-08    1.21735    -0.209325
C    -2.58321e-08    -1.18332    1.17959
C    -4.01026e-08    1.20671    1.17925
C    -3.17843e-08    0.0117975    1.88394
H    -2.16649e-08    -0.857262    -2.82959
H    -3.16545e-08    0.879509    -2.82984
H    -2.65238e-08    -2.13117    -0.737005
H    -4.69559e-08    2.15401    -0.737617
H    -1.68595e-08    -2.11919    1.70979
H    -4.64126e-08    2.14273    1.70918
H    -2.99815e-08    0.011951    2.95748
