14

N    0    1.2829e-09    -2.32356
C    0    1.09592e-09    -0.931886
C    0    -1.20585    -0.213023
C    0    1.20585    -0.213023
C    0    -1.19501    1.17555
C    0    1.19501    1.17555
C    0    7.18109e-10    1.88007
H    0    -0.868385    -2.83358
H    0    0.868385    -2.83358
H    0    -2.14259    -0.741184
H    0    2.14259    -0.741184
H    0    -2.13096    1.70561
H    0    2.13096    1.70561
H    0    5.73869e-10    2.95361
