14

N    -4.97994e-09    -4.69722e-05    -2.32486
C    -1.95672e-10    -9.09458e-06    -0.932183
C    2.02897e-09    -1.20551    -0.212397
C    2.52524e-09    1.20553    -0.212463
C    -2.84871e-09    -1.19446    1.17534
C    -4.96179e-09    1.19455    1.17527
C    -1.85691e-09    6.74032e-05    1.88048
H    -8.1417e-09    -0.868335    -2.83521
H    -5.32468e-09    0.868213    -2.83526
H    1.15734e-09    -2.14233    -0.738927
H    -5.40152e-11    2.14232    -0.739044
H    -7.4534e-09    -2.13024    1.70481
H    -1.3281e-08    2.13036    1.7047
H    1.26088e-09    9.65955e-05    2.95382
