14

N    -2.26837    0.630742    0.0477203
C    -0.840062    0.243722    0.159309
C    -0.404743    -0.432697    -1.23425
C    0.0701824    0.754273    1.0213
C    0.940408    -0.706548    -1.14479
C    1.25367    0.0650964    1.07606
C    1.66609    -0.74258    0.135701
H    -2.70869    1.56271    -0.102891
H    -2.56449    0.0869241    -0.764225
H    -0.869669    0.323116    -1.88429
H    -0.0925431    1.78059    1.24576
H    1.65624    -0.922586    -1.86429
H    1.49448    -0.132712    2.09475
H    2.40241    -1.41788    0.454144
