14

N    -2.3559    0.0894144    2.08959e-11
C    -0.935876    -0.00953326    -1.87953e-10
C    -0.225088    -0.00622392    -1.20024
C    -0.225088    -0.00622391    1.20024
C    1.15965    -0.000604537    -1.19388
C    1.15965    -0.000604537    1.19388
C    1.8604    0.00377579    -2.34878e-10
H    -2.75022    -0.373564    -0.823962
H    -2.75022    -0.373563    0.823962
H    -0.7558    -0.00487647    -2.1329
H    -0.7558    -0.00487547    2.1329
H    1.69113    -6.31611e-05    -2.1272
H    1.69113    -6.21638e-05    2.1272
H    2.93319    0.00735428    -2.29223e-10
