14

N    -2.38158    -0.0739466    -0.231209
C    -0.926635    -0.047669    -0.100769
C    -0.20379    0.11048    -1.24307
C    -0.238285    -0.176212    1.13376
C    1.19641    0.146483    -1.20667
C    1.13202    -0.140683    1.16694
C    1.85964    0.0210997    -0.00444339
H    -2.68717    -0.938308    0.246133
H    -2.73251    0.634013    0.435128
H    -0.72208    0.207616    -2.17552
H    -0.800508    -0.301325    2.03976
H    1.73735    0.27212    -2.12212
H    1.64891    -0.238751    2.10681
H    2.93303    0.047319    0.0349475
