14

N    -0.0309075    -2.33825    -1.36368e-05
C    0.0315859    -1.02109    -1.44133e-05
C    -1.176    -0.253904    -1.33458e-05
C    1.22849    -0.223782    -1.74183e-05
C    -1.16961    1.17128    -1.41936e-05
C    1.18891    1.20738    -1.92887e-05
C    0.00378816    1.90864    -1.71724e-05
H    -1.26162    -3.06643    -1.06777e-05
H    0.808526    -2.91179    -1.49525e-05
H    -2.10662    -0.781854    -1.04031e-05
H    2.1791    -0.711743    -1.87446e-05
H    -2.12201    1.67029    -1.28667e-05
H    2.12626    1.73242    -2.12309e-05
H    -0.014672    2.97757    -1.78162e-05
