 14

      N        -2.322775        -0.002231         -0.006763
      C        -0.940029        -0.046995         -0.006246
      C        -0.243185        -0.024617         -1.250512
      C        -0.244167        -0.026192          1.238597
      C         1.171593        -0.002613         -1.235375
      C         1.170624        -0.004169          1.224603
      C         1.859525         0.004723         -0.005109
      H        -2.776245        -0.280704         -0.875393
      H        -2.776929        -0.281802          0.861157
      H        -0.791234        -0.020378         -2.169923
      H        -0.792940        -0.023116          2.157580
      H         1.719893         0.008048         -2.155364
      H         1.718197         0.005327          2.145037
      H         2.932943         0.022522         -0.004675
