14

N    -2.35696    0.0907876    -0.000383258
C    -0.93685    -0.00785698    -0.00043904
C    -0.226805    -0.00491632    -1.20245
C    -0.226735    -0.0052629    1.20153
C    1.15844    -0.000639497    -1.19581
C    1.15851    -0.000984153    1.19481
C    1.85948    0.00199928    -0.000519453
H    -2.74417    -0.376234    -0.824811
H    -2.74412    -0.376471    0.823933
H    -0.758313    -0.00258265    -2.13575
H    -0.758188    -0.00319734    2.13486
H    1.69056    -6.12226e-05    -2.12932
H    1.69068    -0.000674043    2.12829
H    2.93281    0.00412258    -0.000550558
