 14

      N        -2.336156         0.100976         -0.000046
      C        -0.942362        -0.008916         -0.000060
      C        -0.252191         0.007064         -1.245919
      C        -0.252216         0.006429          1.245821
      C         1.177132         0.003959         -1.235364
      C         1.177107         0.003329          1.235293
      C         1.860776        -0.001985         -0.000030
      H        -2.758975        -0.335669         -0.814443
      H        -2.758991        -0.336084          0.814120
      H        -0.800979         0.027977         -2.165102
      H        -0.801022         0.026873          2.165004
      H         1.726278         0.005451         -2.154709
      H         1.726235         0.004352          2.154649
      H         2.934666        -0.002589         -0.000019
