14

N    -2.35669    0.0924995    -3.11119e-07
C    -0.936987    -0.00800104    -3.22957e-07
C    -0.226357    -0.00622242    -1.20105
C    -0.226357    -0.0062226    1.20105
C    1.15848    0.00015179    -1.19437
C    1.15848    0.000151613    1.19437
C    1.86005    0.00475008    -3.30651e-07
H    -2.74492    -0.372651    -0.824854
H    -2.74492    -0.37265    0.824853
H    -0.756662    -0.00902291    -2.13455
H    -0.756662    -0.00902222    2.13455
H    1.69021    -0.000738094    -2.12764
H    1.69021    -0.00073741    2.12764
H    2.93328    0.00806182    -3.33751e-07
