 14

      N        -2.371174         0.073854         -0.136821
      C        -0.928566         0.005891         -0.061575
      C        -0.196347         0.108645         -1.241765
      C        -0.244761        -0.085513          1.148031
      C         1.186135         0.092746         -1.209632
      C         1.140937        -0.075198          1.173467
      C         1.860642         0.007626         -0.003163
      H        -2.732833        -0.870488         -0.345613
      H        -2.711034         0.263863          0.815065
      H        -0.717332         0.209076         -2.173339
      H        -0.794612        -0.173173          2.065786
      H         1.738890         0.166246         -2.127119
      H         1.654186        -0.142188          2.114326
      H         2.933932         0.008396          0.017607
