14

N    -0.09778054961677324    -2.332642021970201    0.2692104431790643
C    -0.03012630189003482    -0.9416818120133782    0.13581309767222335
C    -1.2317509231721289    -0.21281605454939373    0.16129145092973637
C    1.1830195708629392    -0.2455443948574488    0.011416844807682094
C    -1.2083289155036652    1.1575584476153282    0.05844552711499014
C    1.1884515696143665    1.130238218999518    -0.07888258902927987
C    -0.0021176137262261933    1.8369632285270907    -0.06080756250195801
H    -1.1070703222264797    -2.99375156455118    -0.7816312816371053
H    0.8562664985970023    -2.731244934042427    0.25986361260772184
H    -2.1557681808351195    -0.7443396240074518    0.26857382712216316
H    2.105938013219983    -0.7931620900483669    -0.016895448195844494
H    -2.1293518398088063    1.709380090593916    0.07915543279787936
H    2.1210785034139934    1.6550916420412567    -0.16836771439456563
H    0.006410500327294948    2.907836935396369    -0.13718563518093524
