 14

      N        -2.361979         0.074087         -0.075477
      C        -0.936253        -0.010532         -0.033084
      C        -0.211730         0.034181         -1.225462
      C        -0.241518        -0.042544          1.173478
      C         1.169965         0.026057         -1.202960
      C         1.145135        -0.028984          1.185281
      C         1.857893        -0.000159          0.001059
      H        -2.745226        -0.684871         -0.646815
      H        -2.736008        -0.053215          0.869790
      H        -0.735925         0.081417         -2.160326
      H        -0.782469        -0.082141          2.099829
      H         1.713083         0.053199         -2.128844
      H         1.664401        -0.051539          2.124927
      H         2.931044         0.002857          0.012630
