14

N    -2.35691    0.0937591    -3.81221e-10
C    -0.938348    -0.0100251    -4.67284e-10
C    -0.225965    -0.0095937    -1.20023
C    -0.225965    -0.0095937    1.20023
C    1.15886    -4.89278e-05    -1.19345
C    1.15886    -4.89288e-05    1.19345
C    1.86095    0.00760259    -1.14267e-09
H    -2.74854    -0.366625    -0.825302
H    -2.74854    -0.366624    0.825302
H    -0.753862    -0.015911    -2.13542
H    -0.753862    -0.01591    2.13542
H    1.68993    -0.000815058    -2.1272
H    1.68993    -0.000814063    2.1272
H    2.93463    0.0149989    -1.65512e-09
