 14

      N         0.000000        -0.004841         -2.259991
      C         0.000000         0.001891         -0.940436
      C         0.000000        -1.237631         -0.219687
      C         0.000000         1.237967         -0.219502
      C         0.000000        -1.217468          1.141300
      C         0.000000         1.218681          1.141673
      C         0.000000         0.000219          1.834902
      H         0.000000        -0.594513         -2.637201
      H         0.000000         0.882408         -2.766702
      H         0.000000        -2.154333         -0.768878
      H         0.000000         2.155958         -0.767352
      H         0.000000        -2.137853          1.689355
      H         0.000000         2.140489          1.687907
      H         0.000000        -0.000048          2.907246
