14

N    -4.68569e-05    -7.69569e-05    -2.27191
C    -4.78028e-05    -7.03297e-05    -0.942026
C    -3.88869e-05    -1.24017    -0.218265
C    -5.77274e-05    1.24004    -0.218277
C    -3.99921e-05    -1.21937    1.14716
C    -5.85117e-05    1.21925    1.14715
C    -4.97257e-05    -5.64421e-05    1.84284
H    -3.98433e-05    -0.872573    -2.81555
H    -5.30936e-05    0.872413    -2.81556
H    -3.15384e-05    -2.15934    -0.76458
H    -6.43397e-05    2.1592    -0.764601
H    -3.33627e-05    -2.14296    1.693
H    -6.59063e-05    2.14284    1.69298
H    -5.04529e-05    -5.10884e-05    2.91632
