 14

      N         0.041764        -2.354276          0.000000
      C         0.057860        -1.032694          0.000000
      C        -1.177420        -0.299195          0.000000
      C         1.227625        -0.197974          0.000000
      C        -1.210140         1.125754          0.000000
      C         1.144620         1.230549          0.000000
      C        -0.060052         1.898171          0.000000
      H        -1.194277        -3.053285          0.000000
      H         0.950540        -2.827550          0.000000
      H        -2.095439        -0.846615          0.000000
      H         2.197146        -0.654058          0.000000
      H        -2.173940         1.599588          0.000000
      H         2.065667         1.782582          0.000000
      H        -0.106979         2.967560          0.000000
