14

N    -8.48401e-06    -1.21867e-05    -2.32556
C    -8.2023e-06    -1.12864e-05    -0.93194
C    -5.99387e-06    -1.20532    -0.212711
C    -1.0117e-05    1.20529    -0.212713
C    -5.71918e-06    -1.19441    1.17551
C    -9.80787e-06    1.19439    1.17551
C    -7.61656e-06    -9.46679e-06    1.88037
H    -7.0981e-06    -0.870734    -2.83507
H    -1.00755e-05    0.870709    -2.83507
H    -4.49984e-06    -2.14264    -0.738027
H    -1.18312e-05    2.14262    -0.73803
H    -4.006e-06    -2.13029    1.70459
H    -1.12988e-05    2.13027    1.70459
H    -7.39064e-06    -8.77208e-06    2.95348
