14

N    -1.66504e-07    -3.0178e-08    -2.32471
C    -1.72147e-07    -1.43619e-07    -0.932136
C    -1.47335e-07    -1.20559    -0.212317
C    -1.98755e-07    1.20559    -0.212316
C    -1.44541e-07    -1.19454    1.17539
C    -2.01686e-07    1.19454    1.17539
C    -1.68679e-07    -3.68524e-07    1.88051
H    -1.44497e-07    -0.868738    -2.83543
H    -1.83698e-07    0.868738    -2.83543
H    -1.28888e-07    -2.14241    -0.738804
H    -2.25597e-07    2.14241    -0.738804
H    -1.22371e-07    -2.1303    1.7049
H    -2.29312e-07    2.1303    1.7049
H    -1.61931e-07    -4.54001e-07    2.95384
