14

N    -1.43251e-10    7.55387e-08    -2.32472
C    -2.29181e-08    3.45855e-08    -0.932137
C    -1.7237e-08    -1.20559    -0.212318
C    -4.27957e-08    1.20559    -0.212318
C    -2.92289e-08    -1.19454    1.17539
C    -6.26656e-08    1.19454    1.17539
C    -5.3302e-08    -4.11411e-08    1.88051
H    2.15251e-08    -0.868738    -2.83543
H    -3.65952e-09    0.868739    -2.83543
H    1.10564e-09    -2.14241    -0.738805
H    -5.34424e-08    2.14241    -0.738805
H    -2.14555e-08    -2.1303    1.7049
H    -8.24616e-08    2.1303    1.7049
H    -6.26021e-08    -6.90389e-08    2.95384
