14

N    -2.32642    0.0436686    -0.000526966
C    -0.941978    -0.0277564    -0.000506364
C    -0.246526    -0.0122196    -1.24634
C    -0.246585    -0.0126479    1.24537
C    1.17444    -0.000959488    -1.23276
C    1.17438    -0.00138308    1.23186
C    1.86096    0.00200949    -0.000434683
H    -2.78436    -0.273192    -0.850361
H    -2.7844    -0.273484    0.849176
H    -0.793869    0.00211842    -2.16696
H    -0.793972    0.00137371    2.16596
H    1.72284    0.0102274    -2.15314
H    1.72274    0.00948739    2.15227
H    2.93569    0.0157434    -0.0004068
