14

N    -6.83624e-05    -8.20575e-05    -2.35241
C    -6.57704e-05    -7.81563e-05    -1.00723
C    -5.71911e-05    -1.19174    -0.25285
C    -7.14424e-05    1.19159    -0.252857
C    -5.45286e-05    -1.17517    1.18026
C    -6.85819e-05    1.17503    1.18026
C    -6.01715e-05    -6.97298e-05    1.89835
H    -6.41988e-05    -0.866005    -2.87871
H    -7.45543e-05    0.865838    -2.87871
H    -5.24813e-05    -2.13986    -0.750867
H    -7.80714e-05    2.1397    -0.75088
H    -4.78839e-05    -2.12418    1.68363
H    -7.32867e-05    2.12404    1.68362
H    -5.81103e-05    -6.66276e-05    2.96804
