14

N    -2.35437    0.0948327    1.8604e-06
C    -0.937157    -0.0124693    1.23309e-06
C    -0.22555    -0.0127844    -1.20133
C    -0.225549    -0.0127823    1.20134
C    1.15834    -0.000929305    -1.19449
C    1.15834    -0.000927284    1.19449
C    1.85946    0.00831467    -2.01943e-07
H    -2.74772    -0.362014    -0.827988
H    -2.74772    -0.362012    0.827993
H    -0.753161    -0.0196417    -2.1357
H    -0.753158    -0.0196371    2.1357
H    1.68881    -0.000122917    -2.12821
H    1.68881    -0.000118322    2.12821
H    2.93185    0.0205396    -7.55698e-07
