14

N    0    -1.42679e-08    -2.27148
C    0    -1.30996e-08    -0.942375
C    0    -1.23995    -0.218799
C    0    1.23995    -0.218799
C    0    -1.21869    1.14592
C    0    1.21869    1.14592
C    0    -1.06525e-08    1.84159
H    0    -0.874021    -2.80949
H    0    0.874021    -2.80949
H    0    -2.16    -0.764865
H    0    2.16    -0.764865
H    0    -2.14257    1.69031
H    0    2.14257    1.69031
H    0    -9.70941e-09    2.91453
