14

N    0    5.55259e-10    -2.27156
C    0    -1.55056e-09    -0.942537
C    0    -1.24031    -0.219655
C    0    1.24031    -0.219655
C    0    -1.21915    1.14501
C    0    1.21915    1.14501
C    0    -5.95995e-09    1.84031
H    0    -0.878646    -2.80361
H    0    0.878646    -2.80361
H    0    -2.15987    -0.766668
H    0    2.15987    -0.766668
H    0    -2.14303    1.68944
H    0    2.14303    1.68944
H    0    -7.65986e-09    2.91315
