 14

      N        -2.212550         0.332123          0.000000
      C        -0.972076        -0.372678          0.000000
      C        -0.195638        -0.242038         -1.254507
      C        -0.195638        -0.242038          1.254507
      C         1.124116         0.033352         -1.234818
      C         1.124116         0.033352          1.234818
      C         1.825956         0.182853          0.000000
      H        -2.768436         0.106358         -0.829697
      H        -2.768436         0.106358          0.829697
      H        -0.707287        -0.382558         -2.189042
      H        -0.707287        -0.382558          2.189042
      H         1.671340         0.113615         -2.156069
      H         1.671340         0.113615          2.156069
      H         2.876041         0.396860          0.000000
