14

N    0    -2.07535e-08    -2.2696
C    0    -1.77179e-08    -0.93978
C    0    -1.23806    -0.217612
C    0    1.23806    -0.217612
C    0    -1.21744    1.14471
C    0    1.21744    1.14471
C    0    -1.13764e-08    1.83821
H    0    -0.874845    -2.80864
H    0    0.874845    -2.80864
H    0    -2.15625    -0.765115
H    0    2.15625    -0.765115
H    0    -2.13926    1.69124
H    0    2.13926    1.69124
H    0    -8.92881e-09    2.91041
