14

N    0    5.21953e-09    -2.31463
C    0    1.90912e-10    -0.941072
C    0    -1.24745    -0.249964
C    0    1.24745    -0.249964
C    0    -1.23233    1.17366
C    0    1.23233    1.17366
C    0    -1.00542e-08    1.85737
H    0    -0.87108    -2.829
H    0    0.87108    -2.829
H    0    -2.16804    -0.798537
H    0    2.16804    -0.798537
H    0    -2.1512    1.72489
H    0    2.1512    1.72489
H    0    -1.39947e-08    2.9337
