 14

      N        -2.341059         0.121230          0.001777
      C        -0.943853        -0.006165          0.001163
      C        -0.256277         0.010419         -1.245383
      C        -0.255304         0.009069          1.247190
      C         1.177823         0.003369         -1.236763
      C         1.178788         0.002029          1.237444
      C         1.860336        -0.005311          0.000070
      H        -2.755301        -0.367655         -0.785877
      H        -2.754686        -0.368508          0.789225
      H        -0.805545         0.035531         -2.164321
      H        -0.803855         0.033185          2.166583
      H         1.726974         0.003909         -2.156040
      H         1.728656         0.001574          2.156293
      H         2.934329        -0.008655         -0.000351
