14

N    -2.02235    -0.658352    -0.0756566
C    -0.92249    0.347056    0.0237769
C    -0.198702    0.469013    -1.07889
C    -0.196585    0.598113    1.18402
C    1.16844    0.00791674    -1.24211
C    1.11789    0.037734    1.12755
C    1.45686    -0.57757    -0.0076637
H    -3.09864    -0.864417    0.449979
H    -1.31975    -1.24795    0.898819
H    -0.677779    1.32775    -1.72743
H    -0.76534    1.44524    1.79566
H    1.69428    -0.13125    -2.13653
H    1.92539    -0.180895    1.85947
H    1.23834    -1.41021    -0.168355
