 14

      N        -0.001455        -0.000597         -2.272163
      C        -0.001159        -0.000569         -0.939958
      C         0.010482        -1.237875         -0.217737
      C        -0.012479         1.236767         -0.217784
      C         0.017432        -1.217319          1.145240
      C        -0.018824         1.216268          1.145197
      C        -0.000542        -0.000511          1.838793
      H        -0.179705        -0.857667         -2.811217
      H         0.176555         0.856451         -2.811332
      H         0.028329        -2.155941         -0.765047
      H        -0.030570         2.154811         -0.765124
      H         0.038234        -2.138947          1.691707
      H        -0.039383         2.137919          1.691635
      H        -0.000303        -0.000489          2.911231
