14

N    -2.43607    -0.194486    0.260746
C    -0.951715    0.17725    0.0865662
C    -0.126322    0.265463    -1.16896
C    -0.201684    -0.323023    1.05523
C    1.19495    0.0854249    -1.45162
C    1.09455    -0.0659486    1.23496
C    1.71845    0.107653    -0.032744
H    -2.96141    -0.791313    -0.0655874
H    -1.3243    1.03892    -0.236857
H    -0.177262    -0.085136    -2.3066
H    -0.518545    -0.134536    1.97376
H    1.78275    -0.565128    -2.07105
H    1.60835    0.00195903    2.22392
H    2.72988    0.594325    0.150708
