14

N    -2.32892    0.0564859    2.15704e-06
C    -0.944919    -0.00328672    2.61141e-06
C    -0.246522    -0.000391638    -1.24406
C    -0.246522    -0.000386851    1.24407
C    1.171    -0.00186991    -1.23035
C    1.171    -0.00186517    1.23036
C    1.85927    0.0027635    3.28737e-06
H    -2.77707    -0.282196    -0.846678
H    -2.77707    -0.282193    0.846683
H    -0.795415    0.00406846    -2.16284
H    -0.795416    0.00407678    2.16285
H    1.72047    0.00363554    -2.14988
H    1.72047    0.00364382    2.14989
H    2.93336    0.014365    3.52841e-06
