14

N    -2.32615    0.0495597    6.06998e-12
C    -0.941826    -0.00664751    2.28164e-12
C    -0.246609    0.00159093    -1.24374
C    -0.246609    0.00159093    1.24374
C    1.17148    0.000917858    -1.23041
C    1.17148    0.000917858    1.23041
C    1.85767    0.00341638    -4.28943e-13
H    -2.77905    -0.279681    -0.848268
H    -2.77905    -0.279681    0.848268
H    -0.792957    0.00304194    -2.16385
H    -0.792957    0.00304194    2.16385
H    1.71826    0.00521796    -2.15111
H    1.71826    0.00521796    2.15111
H    2.93176    0.00822226    -1.43132e-12
