14

N    -6.02833e-05    -4.86128e-05    -2.27386
C    -5.8079e-05    -5.23311e-05    -0.943647
C    -4.87927e-05    -1.2403    -0.218666
C    -6.49564e-05    1.24019    -0.218659
C    -4.66615e-05    -1.21909    1.14739
C    -6.25517e-05    1.21897    1.1474
C    -5.34547e-05    -6.01205e-05    1.84315
H    -5.54782e-05    -0.874973    -2.81518
H    -6.68883e-05    0.874879    -2.81518
H    -4.37025e-05    -2.16013    -0.765419
H    -7.18569e-05    2.16003    -0.765407
H    -3.97336e-05    -2.14178    1.69478
H    -6.76529e-05    2.14166    1.69479
H    -5.1679e-05    -6.31208e-05    2.91658
