14

N    -6.11707e-05    -7.74711e-05    -2.31114
C    -6.33784e-05    -8.0166e-05    -0.939522
C    -5.3665e-05    -1.24858    -0.251068
C    -7.53059e-05    1.24842    -0.251063
C    -5.60822e-05    -1.23481    1.17358
C    -7.74778e-05    1.23464    1.17358
C    -6.78799e-05    -8.56574e-05    1.85649
H    -5.28069e-05    -0.871088    -2.82277
H    -6.78864e-05    0.870935    -2.82277
H    -4.48109e-05    -2.16815    -0.801443
H    -8.23875e-05    2.16799    -0.801435
H    -4.89869e-05    -2.15605    1.72169
H    -8.63372e-05    2.15588    1.72169
H    -6.96117e-05    -8.77685e-05    2.93139
