14

N    0    4.41325e-17    -2.35136
C    0    -3.08757e-16    -1.0064
C    0    -1.19208    -0.253338
C    0    1.19208    -0.253338
C    0    -1.17541    1.17991
C    0    1.17541    1.17991
C    0    -5.88893e-16    1.89707
H    0    -0.869021    -2.87538
H    0    0.869021    -2.87538
H    0    -2.13929    -0.752288
H    0    2.13929    -0.752288
H    0    -2.12423    1.68335
H    0    2.12423    1.68335
H    0    -6.34089e-16    2.96636
