14

N    -1.78611e-09    8.98974e-05    -2.35147
C    -1.09665e-10    0.000154622    -1.00651
C    6.83091e-10    -1.19189    -0.253391
C    9.75101e-10    1.19227    -0.253506
C    -1.39549e-09    -1.17515    1.17986
C    -2.05655e-09    1.17567    1.17975
C    -7.84332e-10    0.000294348    1.89696
H    -2.91967e-09    -0.868954    -2.87545
H    -1.95885e-09    0.869084    -2.87553
H    7.47095e-11    -2.13912    -0.752296
H    -2.19419e-10    2.13946    -0.752502
H    -3.4763e-09    -2.12395    1.68334
H    -5.40298e-09    2.12452    1.68314
H    6.1974e-10    0.000345806    2.96624
