 14

      N        -0.040308        -2.291872          0.000000
      C         0.018301        -0.969978          0.000000
      C        -1.221057        -0.228842          0.000000
      C         1.244270        -0.209483          0.000000
      C        -1.209000         1.136163          0.000000
      C         1.216839         1.154634          0.000000
      C        -0.001905         1.844165          0.000000
      H        -1.350938        -3.021424          0.000000
      H         0.887535        -2.735717          0.000000
      H        -2.135172        -0.783763          0.000000
      H         2.176806        -0.739986          0.000000
      H        -2.136818         1.676543          0.000000
      H         2.136859         1.708138          0.000000
      H        -0.009079         2.916952          0.000000
