 14

      N         0.000000         0.000000         -2.282512
      C         0.000000        -0.000000         -0.930822
      C         0.000000        -1.251781         -0.249052
      C         0.000000         1.251781         -0.249052
      C         0.000000        -1.234194          1.172289
      C         0.000000         1.234194          1.172289
      C         0.000000         0.000000          1.825132
      H         0.000000        -0.870518         -2.794415
      H         0.000000         0.870518         -2.794415
      H         0.000000        -2.162222         -0.811939
      H         0.000000         2.162222         -0.811939
      H         0.000000        -2.144204          1.734783
      H         0.000000         2.144204          1.734783
      H         0.000000        -0.000000          2.901795
