14

N    -0.045511425415670284    -2.3154809585664227    0.12485208611177089
C    0.01065812110996572    -0.9596709742468813    0.06423885864778896
C    -1.2152282274018111    -0.23154554098908062    0.07286307657410947
C    1.226751664374561    -0.21988342254535145    0.007718647553300879
C    -1.2062228907583006    1.1372068372366348    0.024679364466017095
C    1.2071771348509397    1.150675111577101    -0.03459741537485902
C    -0.0028811264776776825    1.840646450066477    -0.02876299852360778
H    -1.3904859825098332    -3.030151632669657    -0.3653410023850419
H    0.9007629092094324    -2.723293956527594    0.12403324788319163
H    -2.1321077470836842    -0.7819931806380895    0.12077534723320436
H    2.1588862622831297    -0.7520034699690611    -0.003074937630217557
H    -2.134579105190115    1.6768184887324245    0.03195140233082902
H    2.1305764722877982    1.6973270160286948    -0.07465001275464107
H    -0.008926050022390658    2.9132353049362085    -0.06468566942361707
