14

N    -2.3555    0.084601    2.24175e-09
C    -0.937185    -0.0120358    1.12212e-09
C    -0.226789    -0.00839632    -1.20191
C    -0.226789    -0.00839632    1.20191
C    1.15866    -0.000682352    -1.19515
C    1.15866    -0.000682351    1.19515
C    1.8596    0.00421991    -3.98394e-10
H    -2.74388    -0.367571    -0.821004
H    -2.74388    -0.36757    0.821004
H    -0.758188    -0.00720892    -2.13562
H    -0.758188    -0.00720792    2.13562
H    1.6908    0.000988956    -2.12879
H    1.6908    0.000989954    2.12879
H    2.93303    0.00930207    -9.20213e-10
