 14

      N        -0.000115        -0.000347         -2.270754
      C        -0.000080        -0.000290         -0.940429
      C         0.003588        -1.237920         -0.217536
      C        -0.003711         1.237402         -0.217642
      C         0.005827        -1.217211          1.145143
      C        -0.005877         1.216810          1.145039
      C        -0.000007        -0.000171          1.839106
      H        -0.059958        -0.873034         -2.810234
      H         0.059699         0.872293         -2.810312
      H         0.009506        -2.156350         -0.764514
      H        -0.009657         2.155785         -0.764699
      H         0.012614        -2.139086          1.691551
      H        -0.012635         2.138732          1.691368
      H         0.000022        -0.000124          2.911494
