 14

      N        -2.385312        -0.033400         -0.212890
      C        -0.926671        -0.035049         -0.092844
      C        -0.186253         0.114687         -1.257881
      C        -0.253966        -0.152536          1.123143
      C         1.198738         0.139692         -1.210733
      C         1.127914        -0.122262          1.165627
      C         1.857560         0.023056         -0.002114
      H        -2.688058        -0.956348          0.167494
      H        -2.703442         0.569891          0.557202
      H        -0.704126         0.214064         -2.190461
      H        -0.815134        -0.269279          2.030807
      H         1.760617         0.255572         -2.117901
      H         1.634683        -0.214203          2.107883
      H         2.930447         0.045441          0.032635
