14

N    -2.3692    -0.0653531    -0.267603
C    -0.921615    -0.0500742    -0.0421168
C    -0.196866    0.111748    -1.22302
C    -0.231497    -0.173127    1.15914
C    1.16683    0.148536    -1.19854
C    1.16676    -0.134267    1.17468
C    1.86131    0.0244881    0.0121388
H    -2.69903    -0.934835    0.176733
H    -2.74533    0.655101    0.366195
H    -0.745022    0.204644    -2.13652
H    -0.775285    -0.298499    2.07838
H    1.71784    0.274513    -2.12109
H    1.68786    -0.228822    2.0955
H    2.93447    0.0544609    0.0228332
