14

N    -2.1266e-07    -1.08177e-07    -2.34937
C    -2.23416e-07    -1.80789e-07    -1.00573
C    -1.91837e-07    -1.18905    -0.253445
C    -2.55271e-07    1.18905    -0.253444
C    -1.86342e-07    -1.17129    1.17868
C    -2.50132e-07    1.17129    1.17868
C    -2.14506e-07    -3.20385e-07    1.89764
H    -1.83152e-07    -0.863729    -2.87436
H    -2.30944e-07    0.863729    -2.87436
H    -1.69227e-07    -2.13245    -0.758293
H    -2.84466e-07    2.13245    -0.758293
H    -1.54443e-07    -2.11663    1.68751
H    -2.72991e-07    2.11663    1.68751
H    -2.09777e-07    -3.69688e-07    2.96748
