14

N    -9.85416e-05    -7.02674e-05    -2.31625
C    -9.18583e-05    -7.2884e-05    -0.934417
C    -7.35961e-05    -1.23463    -0.209177
C    -0.0001031    1.23448    -0.209173
C    -6.70977e-05    -1.22711    1.15077
C    -9.64196e-05    1.22696    1.15077
C    -7.84388e-05    -7.813e-05    1.83619
H    -0.865769    -7.961e-05    -2.84515
H    0.865567    -5.89218e-05    -2.84516
H    -6.54519e-05    -2.14414    -0.771274
H    -0.000116691    2.14399    -0.771266
H    -5.34604e-05    -2.14424    1.7037
H    -0.000104696    2.14408    1.70371
H    -7.32393e-05    -8.01624e-05    2.90962
