 14

      N         0.109418         0.000003         -2.307822
      C         0.033092         0.000003         -0.942784
      C         0.025524        -1.242884         -0.239667
      C         0.025519         1.242889         -0.239667
      C        -0.002602        -1.227337          1.160991
      C        -0.002607         1.227342          1.160991
      C        -0.018046         0.000002          1.848751
      H        -0.098708        -0.874884         -2.789403
      H        -0.098711         0.874889         -2.789403
      H         0.045182        -2.161878         -0.787402
      H         0.045173         2.161883         -0.787402
      H        -0.012427        -2.147277          1.709676
      H        -0.012436         2.147282          1.709677
      H        -0.038393         0.000002          2.921899
