14

N    -2.3499    0.114033    3.40713e-10
C    -0.934784    -0.0261382    -3.25636e-10
C    -0.223663    -0.0346281    -1.20037
C    -0.223663    -0.034628    1.20037
C    1.15981    -0.00279813    -1.19372
C    1.15981    -0.00279813    1.19372
C    1.86145    0.0259085    -3.79974e-09
H    -2.75859    -0.330769    -0.825434
H    -2.75859    -0.330768    0.825434
H    -0.752575    -0.0589741    -2.13399
H    -0.752575    -0.058973    2.13399
H    1.69005    0.00158723    -2.12763
H    1.69004    0.0015882    2.12763
H    2.93434    0.0577077    -5.20609e-09
