 14

      N         0.019263        -2.250780          0.000000
      C         0.072815        -0.905408         -0.000000
      C        -1.167171        -0.190229          0.000000
      C         1.281701        -0.131796         -0.000000
      C        -1.180987         1.175462         -0.000000
      C         1.242167         1.231025          0.000000
      C         0.017248         1.901350         -0.000000
      H        -2.269804        -4.031275          0.000000
      H         0.978790        -2.632740          0.000000
      H        -2.076833        -0.756623          0.000000
      H         2.222663        -0.650041         -0.000000
      H        -2.116360         1.702943         -0.000000
      H         2.154134         1.798230          0.000000
      H        -0.006968         2.974334          0.000000
