 14

      N         0.000000        -2.270557          0.000000
      C        -0.000000        -0.940466          0.000000
      C        -1.237703        -0.217546          0.000000
      C         1.237703        -0.217546          0.000000
      C        -1.217037         1.145098          0.000000
      C         1.217037         1.145098          0.000000
      C        -0.000000         1.839168          0.000000
      H        -2.127689        -3.583163          0.000000
      H         0.874626        -2.810128          0.000000
      H        -2.156153        -0.764524          0.000000
      H         2.156153        -0.764524          0.000000
      H        -2.138967         1.691456          0.000000
      H         2.138967         1.691456          0.000000
      H         0.000000         2.911550          0.000000
