 14

      N        -2.312818        -0.048938         -0.006788
      C        -0.937531        -0.060002         -0.006253
      C        -0.237184        -0.035275         -1.249744
      C        -0.238164        -0.036849          1.237821
      C         1.169374        -0.001606         -1.232401
      C         1.168407        -0.003159          1.221629
      C         1.859840         0.012428         -0.005104
      H        -2.789859        -0.238982         -0.888157
      H        -2.790553        -0.240097          0.873963
      H        -0.784838        -0.039683         -2.169144
      H        -0.786544        -0.042420          2.156782
      H         1.716968         0.013123         -2.152865
      H         1.715275         0.010406          2.142542
      H         2.932899         0.038860         -0.004664
