14
Flat mex-B1-B2, i.e. set B1 internal coordiantes to 0
 N    0.000000    0.000000   -2.331776
 C    0.000000    0.000000   -0.940167
 C    0.000000   -1.245288   -0.247006
 C    0.000000    1.245288   -0.247006
 C    0.000000   -1.232958    1.175936
 C    0.000000    1.232958    1.175936
 C    0.000000    0.000000    1.861746
 H    0.000000   -0.929773   -2.744608
 H    0.000000    0.929773   -2.744608
 H    0.000000   -2.164624   -0.795606
 H    0.000000    2.164624   -0.795606
 H    0.000000   -2.152698    1.724571
 H    0.000000    2.152698    1.724571
 H    0.000000    0.000000    2.935492
