14

N    -2.32716    0.0583465    -0.0019107
C    -0.942681    -0.0245356    -0.0019847
C    -0.248896    -0.0125213    -1.24711
C    -0.248813    -0.0133578    1.2431
C    1.17067    -0.00235528    -1.23432
C    1.17075    -0.00318317    1.23023
C    1.85623    0.00208158    -0.00206909
H    -2.77761    -0.276347    -0.849202
H    -2.77755    -0.276916    0.845186
H    -0.796962    -0.00134695    -2.1665
H    -0.796818    -0.00280115    2.16253
H    1.71803    0.00827747    -2.15473
H    1.71818    0.00683123    2.15061
H    2.92982    0.0176906    -0.00209965
