14

N    -2.3192    0.0430088    4.22896e-16
C    -0.942466    -0.0200174    7.27279e-17
C    -0.241939    -0.00546034    -1.24213
C    -0.241939    -0.00546034    1.24213
C    1.16777    0.00150862    -1.228
C    1.16777    0.00150862    1.228
C    1.85555    0.00382666    -9.45981e-16
H    -2.78406    -0.266222    -0.853129
H    -2.78406    -0.266222    0.853129
H    -0.787811    -0.00188597    -2.16265
H    -0.787811    -0.00188597    2.16265
H    1.716    0.00870273    -2.14806
H    1.716    0.00870273    2.14806
H    2.92991    0.0166225    -1.46756e-15
