 14

      N        -2.306243        -0.076553         -0.006803
      C        -0.935824        -0.067643         -0.006257
      C        -0.233359        -0.041527         -1.249269
      C        -0.234340        -0.043101          1.237340
      C         1.168221        -0.001013         -1.230615
      C         1.167255        -0.002563          1.219842
      C         1.860171         0.017018         -0.005101
      H        -2.799402        -0.214427         -0.889957
      H        -2.800098        -0.215544          0.875787
      H        -0.780727        -0.051088         -2.168653
      H        -0.782432        -0.053825          2.156280
      H         1.715379         0.016114         -2.151362
      H         1.713687         0.013398          2.141042
      H         2.932984         0.048557         -0.004658
