14

N    0    -0.0044721    -2.32183
C    0    -0.00442119    -0.931825
C    0    -1.20549    -0.212588
C    0    1.1967    -0.212676
C    0    -1.19669    1.17367
C    0    1.188    1.17358
C    0    -0.00431824    1.87907
H    0    -0.876567    -2.82426
H    0    0.867586    -2.82433
H    0    -2.14091    -0.739243
H    0    2.13208    -0.7394
H    0    -2.1325    1.70071
H    0    2.12385    1.70056
H    0    -0.00427893    2.95245
