14

N    -0.000142362    -0.000165185    -2.35636
C    -0.000143455    -0.000172285    -1.0107
C    -0.000120031    -1.19181    -0.253998
C    -0.000168091    1.19146    -0.253986
C    -0.000121523    -1.17529    1.18439
C    -0.000168917    1.17492    1.18441
C    -0.000145798    -0.000187669    1.90546
H    -0.000124387    -0.869058    -2.88603
H    -0.000159445    0.868733    -2.88602
H    -0.000100553    -2.13789    -0.756641
H    -0.00018677    2.13754    -0.756618
H    -0.000102805    -2.12379    1.68953
H    -0.00018845    2.12342    1.68955
H    -0.000146655    -0.000193318    2.97621
