14

N    -2.32477    0.0490168    -0.000665268
C    -0.940908    -0.0268267    -0.000686562
C    -0.247605    -0.0123006    -1.2458
C    -0.247596    -0.0128208    1.24443
C    1.17207    -0.000401095    -1.23295
C    1.17208    -0.000915929    1.23157
C    1.85748    0.00383496    -0.000691178
H    -2.77891    -0.270933    -0.850381
H    -2.7789    -0.271288    0.84892
H    -0.795376    -0.00291255    -2.1653
H    -0.795359    -0.00381691    2.16393
H    1.71973    0.00973158    -2.15312
H    1.71974    0.0088323    2.15174
H    2.93118    0.0183856    -0.000692367
