14

N    -2.33183    0.0582478    1.06637e-15
C    -0.944878    -0.0185868    4.90727e-16
C    -0.248022    -0.00398037    -1.24497
C    -0.248022    -0.00398037    1.24497
C    1.17292    0.00118853    -1.23147
C    1.17292    0.00118853    1.23147
C    1.86013    -0.000113536    -7.5689e-16
H    -2.78051    -0.281823    -0.847263
H    -2.78051    -0.281823    0.847263
H    -0.795371    0.0100232    -2.1652
H    -0.795371    0.0100232    2.1652
H    1.72366    0.00958655    -2.15012
H    1.72366    0.00958655    2.15012
H    2.93493    0.00718964    -1.27534e-15
