14

N    -3.10322e-10    -1.99314e-10    -2.27053
C    -5.45451e-11    -2.04775e-10    -0.941043
C    9.60477e-11    -1.23853    -0.21835
C    7.34959e-11    1.23853    -0.21835
C    -2.09679e-10    -1.2188    1.14544
C    -2.98305e-10    1.2188    1.14544
C    -1.65835e-10    -2.15903e-10    1.84164
H    -4.55316e-10    -0.875807    -2.80562
H    -3.71108e-10    0.875807    -2.80562
H    6.87913e-11    -2.15596    -0.768249
H    -1.91844e-11    2.15596    -0.768249
H    -4.85585e-10    -2.14314    1.68868
H    -6.94894e-10    2.14314    1.68868
H    -2.99193e-11    -2.2017e-10    2.91454
