14

N    0    9.89672e-05    -2.35116
C    0    3.11137e-05    -1.00638
C    0    -1.19204    -0.253622
C    0    1.19203    -0.253502
C    0    -1.17539    1.17955
C    0    1.17523    1.17966
C    0    -0.000115371    1.8968
H    0    -0.870124    -2.87421
H    0    0.870375    -2.87413
H    0    -2.13913    -0.752801
H    0    2.13916    -0.752585
H    0    -2.12422    1.68281
H    0    2.12401    1.68303
H    0    -0.000169323    2.96608
