14

N    -2.27598    -0.342129    -0.23477
C    -1    -0.000925256    -0.0666967
C    -0.147991    -0.0875638    -1.20302
C    -0.298298    0.096839    1.24199
C    1.27154    -0.0222807    -1.15301
C    0.985356    0.283667    1.36267
C    1.87868    0.206593    0.112089
H    -2.6658    -0.0720095    -1.15101
H    -2.81517    -0.576887    0.601825
H    -0.562407    -0.612082    -2.17702
H    -0.882005    -0.0439957    2.07187
H    1.85235    0.147851    -2.04764
H    1.48248    0.361844    2.1565
H    2.96951    0.173195    0.303658
