14

N    -2.26171    -0.338933    -0.234022
C    -1.01294    -0.00544682    -0.0638545
C    -0.142327    -0.0811756    -1.20123
C    -0.297589    0.103745    1.23143
C    1.266    -0.0304006    -1.15919
C    0.980582    0.292336    1.36214
C    1.87496    0.215475    0.12091
H    -2.66561    -0.0908282    -1.17702
H    -2.83511    -0.596011    0.630434
H    -0.58492    -0.616817    -2.16316
H    -0.899509    -0.125579    2.06526
H    1.86741    0.126799    -2.02491
H    1.57118    0.292441    2.17901
H    2.97252    0.126744    0.283653
