 14

      N        -2.377607         0.040203         -0.169765
      C        -0.927847        -0.006646         -0.076196
      C        -0.191108         0.114091         -1.249502
      C        -0.249452        -0.108876          1.136383
      C         1.192315         0.109543         -1.210678
      C         1.134501        -0.092210          1.169808
      C         1.858895         0.012213         -0.002808
      H        -2.716379        -0.941931         -0.158020
      H        -2.703957         0.392619          0.738605
      H        -0.710118         0.219607         -2.181208
      H        -0.804634        -0.210206          2.049525
      H         1.750048         0.198870         -2.123609
      H         1.644479        -0.169383          2.111681
      H         2.932148         0.019512          0.024183
