14

N    -2.33052    0.054791    -3.71649e-16
C    -0.943965    -0.0108396    -1.88085e-16
C    -0.24711    0.00350764    -1.24483
C    -0.24711    0.00350764    1.24483
C    1.17278    0.00282242    -1.23149
C    1.17278    0.00282242    1.23149
C    1.85991    -0.000749008    -4.89518e-16
H    -2.78199    -0.286151    -0.845657
H    -2.78199    -0.286151    0.845657
H    -0.794373    0.0088838    -2.16504
H    -0.794373    0.0088838    2.16504
H    1.72253    0.00650395    -2.15081
H    1.72253    0.00650395    2.15081
H    2.93462    0.0023904    -7.70096e-16
