14

N    -5.10539e-11    0.010604    -2.32021
C    -6.2437e-12    0.0109188    -0.927773
C    1.76164e-11    -1.19495    -0.209308
C    1.67631e-11    1.21711    -0.209854
C    -3.79882e-11    -1.18376    1.17873
C    -4.94051e-11    1.20655    1.17819
C    -2.75787e-11    0.0115542    1.88292
H    -7.31903e-11    -0.860042    -2.83001
H    -6.16326e-11    0.881019    -2.8304
H    8.35426e-12    -2.13117    -0.736471
H    -1.63193e-12    2.1531    -0.73744
H    -8.96514e-11    -2.11928    1.70842
H    -1.1835e-10    2.14231    1.70745
H    -2.9597e-12    0.0117968    2.95588
