14

N    0    0.000676277    -2.35182
C    0    0.00104105    -1.00786
C    0    -1.18545    -0.249353
C    0    1.18795    -0.249997
C    0    -1.16954    1.18355
C    0    1.17281    1.18291
C    0    0.00183225    1.90717
H    0    -0.860198    -2.88988
H    0    0.861258    -2.89035
H    0    -2.13154    -0.74873
H    0    2.13376    -0.749888
H    0    -2.11977    1.68186
H    0    2.12332    1.6807
H    0    0.0021229    2.978
