14

N    -2.35853    0.0886262    -0.000390288
C    -0.937989    -0.00641005    -0.000363047
C    -0.226398    -0.00293952    -1.20102
C    -0.226456    -0.00311792    1.20033
C    1.15808    -0.000449619    -1.19456
C    1.15802    -0.000627065    1.19393
C    1.85996    0.001652    -0.000294888
H    -2.74312    -0.379994    -0.825322
H    -2.74316    -0.380116    0.824453
H    -0.755325    0.0012935    -2.13503
H    -0.755429    0.000977319    2.13432
H    1.68731    -0.000479657    -2.12946
H    1.68721    -0.000795016    2.12886
H    2.9334    -0.000982859    -0.000269164
