 14

      N        -2.301617        -0.094690         -0.006813
      C        -0.934602        -0.072611         -0.006260
      C        -0.230720        -0.045598         -1.248946
      C        -0.231700        -0.047171          1.237014
      C         1.167525        -0.000625         -1.229422
      C         1.166560        -0.002174          1.218650
      C         1.860451         0.020041         -0.005099
      H        -2.806324        -0.198366         -0.888753
      H        -2.807019        -0.199482          0.874597
      H        -0.777876        -0.058562         -2.168316
      H        -0.779581        -0.061298          2.155936
      H         1.714388         0.018066         -2.150359
      H         1.712696         0.015352          2.140041
      H         2.933089         0.054922         -0.004654
