14

N    -2.3588    0.0861576    -7.36657e-10
C    -0.937939    -0.00331384    -4.34844e-10
C    -0.226319    0.000732183    -1.20066
C    -0.226319    0.000732182    1.20066
C    1.15817    0.000337833    -1.19424
C    1.15817    0.000337833    1.19424
C    1.8601    8.71526e-05    2.88622e-10
H    -2.74184    -0.383641    -0.82515
H    -2.74184    -0.38364    0.82515
H    -0.755275    0.00496862    -2.13466
H    -0.755275    0.00496962    2.13466
H    1.68739    -0.000801959    -2.12916
H    1.68739    -0.000800956    2.12916
H    2.93354    -0.00577413    5.77382e-10
