 14

      N         0.000000        -0.000000         -2.353127
      C         0.000000         0.000000         -0.969015
      C         0.000000        -1.223427         -0.244108
      C         0.000000         1.223427         -0.244108
      C         0.000000        -1.213831          1.179321
      C         0.000000         1.213831          1.179321
      C         0.000000        -0.000000          1.894311
      H         0.000000        -0.867042         -2.865075
      H         0.000000         0.867042         -2.865075
      H         0.000000        -2.157124         -0.771269
      H         0.000000         2.157124         -0.771269
      H         0.000000        -2.149397          1.702898
      H         0.000000         2.149397          1.702898
      H         0.000000         0.000000          2.965537
