 14

      N        -2.331817         0.071923          0.000000
      C        -0.941455        -0.017522         -0.000000
      C        -0.249222        -0.000589         -1.245442
      C        -0.249222        -0.000589          1.245442
      C         1.175310         0.003329         -1.233551
      C         1.175310         0.003329          1.233551
      C         1.860587         0.001584         -0.000000
      H        -2.763822        -0.312371         -0.836684
      H        -2.763822        -0.312371          0.836684
      H        -0.797923         0.014958         -2.164637
      H        -0.797923         0.014958          2.164637
      H         1.724067         0.006992         -2.153189
      H         1.724067         0.006992          2.153189
      H         2.934359         0.006056         -0.000000
