14

N    -5.06977e-07    1.0287e-05    -2.32346
C    -5.05761e-07    8.54833e-06    -0.933303
C    -4.42855e-07    -1.20439    -0.213221
C    -5.64332e-07    1.2044    -0.213218
C    -4.43983e-07    -1.19406    1.1751
C    -5.70155e-07    1.19408    1.17511
C    -5.10027e-07    5.02898e-06    1.88122
H    -4.61239e-07    -0.867963    -2.83342
H    -5.47103e-07    0.867984    -2.83342
H    -3.91451e-07    -2.1419    -0.73935
H    -6.12237e-07    2.14192    -0.739345
H    -3.92737e-07    -2.13074    1.70362
H    -6.22199e-07    2.13075    1.70362
H    -5.13942e-07    3.68614e-06    2.95516
