14

N    -2.35382    0.0875515    5.28748e-05
C    -0.93604    -0.0134407    2.71011e-05
C    -0.225404    -0.00977994    -1.20142
C    -0.225369    -0.00990443    1.20145
C    1.15946    -0.000301239    -1.19481
C    1.1595    -0.00042504    1.1948
C    1.86105    0.00520868    -1.24579e-05
H    -2.75079    -0.366178    -0.825101
H    -2.75077    -0.366263    0.825172
H    -0.756992    -0.0113074    -2.13408
H    -0.75693    -0.0115275    2.13413
H    1.69113    0.0013513    -2.12818
H    1.69119    0.00113179    2.12816
H    2.93429    0.0120912    -2.76508e-05
