14

N    -2.3928    -0.0731818    -0.207673
C    -0.927333    -0.0490607    -0.0520189
C    -0.139004    0.1216    -1.29157
C    -0.291431    -0.166809    1.09148
C    1.21426    0.151823    -1.21454
C    1.11395    -0.133043    1.15151
C    1.85372    0.0296405    -0.032953
H    -2.67007    -0.923574    0.33123
H    -2.71471    0.60956    0.513924
H    -0.650744    0.216576    -2.21362
H    -0.854938    -0.291555    2.00064
H    1.77608    0.274929    -2.11035
H    1.61595    -0.230893    2.09531
H    2.9183    0.0525025    0.0353151
