14

 N    0.00000    0.00000   -2.27176
 C    0.00000    0.00000   -0.94297
 C    0.00000   -1.23879   -0.22212
 C    0.00000    1.23879   -0.22212
 C    0.00000   -1.21825    1.14022
 C    0.00000    1.21825    1.14022
 C    0.00000   -0.00000    1.83263
 H    0.00000   -0.87194   -2.81441
 H    0.00000    0.87194   -2.81441
 H    0.00000   -2.15574   -0.77200
 H    0.00000    2.15574   -0.77200
 H    0.00000   -2.13936    1.68827
 H    0.00000    2.13936    1.68827
 H    0.00000    0.00000    2.90468
