14

N    -2.06534    -0.335476    0.388394
C    -0.894392    0.467986    0.0530026
C    -0.0454432    -0.173684    -1.43601
C    -0.374899    0.744667    0.929202
C    1.26179    -0.279356    -1.29146
C    0.821195    0.0432409    1.20849
C    1.59123    -0.302271    0.0233546
H    -3.02409    0.0534724    0.421467
H    -1.71912    -1.13719    0.897529
H    -0.127761    0.467934    -2.24042
H    -0.372155    1.33338    1.67335
H    1.52174    -0.402375    -2.1799
H    1.49334    -0.143132    2.00655
H    2.60664    -1.17521    0.137335
