 14

      N        -2.182680        -0.286226         -0.385148
      C        -0.587608        -0.245354         -0.227885
      C         0.313697        -0.635114         -1.015590
      C        -0.899170         0.407420          0.825354
      C         1.685590        -0.398332         -0.706364
      C         0.384569         0.640558          1.236050
      C         1.567710         0.302052          0.484445
      H        -1.853784         0.441523         -1.141592
      H        -1.641354         0.448730         -0.998993
      H         0.100085        -0.979548         -1.933760
      H        -1.900240         0.848181          0.866123
      H         2.697580        -0.373563         -0.593416
      H         0.302669         1.544200          2.010890
      H         2.436030         0.430518          1.067160
