14

N    -2.23714    -0.155841    -0.179169
C    -0.892648    -0.233506    -0.177282
C    0.00312733    -0.0927759    -1.34234
C    -0.481292    -0.0187085    1.15214
C    1.28878    -0.142935    -1.09646
C    0.765857    0.506243    1.38961
C    1.84058    0.133483    0.439916
H    -2.02464    0.346526    -1.07744
H    -1.59044    -0.489381    -1.09727
H    -0.327107    0.0692287    -2.4321
H    -1.29076    -0.16336    1.88965
H    1.85931    -0.593096    -1.91281
H    1.1521    1.11774    2.22076
H    3.02561    0.365498    0.551886