14

N    -8.52941e-07    -1.20382e-06    -2.27221
C    -8.9644e-07    -1.08392e-06    -0.942682
C    -7.41365e-07    -1.24023    -0.21846
C    -1.09252e-06    1.24022    -0.21846
C    -7.85861e-07    -1.21895    1.14638
C    -1.13064e-06    1.21895    1.14638
C    -9.80543e-07    -8.28102e-07    1.84194
H    -7.11783e-07    -0.874905    -2.81136
H    -9.57665e-07    0.874903    -2.81136
H    -5.95071e-07    -2.16052    -0.764372
H    -1.20613e-06    2.16052    -0.764372
H    -6.69915e-07    -2.14299    1.691
H    -1.27663e-06    2.14299    1.691
H    -1.01386e-06    -7.29009e-07    2.91496
