14

N    -2.32106    0.0428635    3.28094e-11
C    -0.939243    -0.00596196    2.89081e-11
C    -0.249434    0.0130311    -1.24557
C    -0.249434    0.0130311    1.24557
C    1.16854    0.00317616    -1.23248
C    1.16854    0.00317616    1.23248
C    1.8526    -0.00744125    2.06958e-11
H    -2.76095    -0.29963    -0.849794
H    -2.76095    -0.29963    0.849794
H    -0.800088    0.0302824    -2.16297
H    -0.800088    0.0302824    2.16297
H    1.71462    0.00441571    -2.15299
H    1.71462    0.00441571    2.15299
H    2.92605    -0.0152846    1.7563e-11
