14

N    -2.34821    0.0206759    -0.00390559
C    -0.932076    0.0287161    0.00387761
C    -0.228272    0.0180692    -1.24322
C    -0.242707    0.0175617    1.2059
C    1.13563    0.0741214    -1.26764
C    1.138    0.00678126    1.20161
C    1.88179    -0.0467984    0.0716102
H    -2.73522    -0.445425    -0.741789
H    -2.48842    -0.256178    0.979324
H    -0.782841    -0.0406495    -2.12388
H    -0.704937    0.211179    2.20924
H    1.6642    -0.158374    -2.18186
H    1.7652    -0.114172    2.09934
H    2.91327    -0.360063    0.14571
14

N    -2.34953    0.0187776    -0.0070308
C    -0.921011    0.0288853    -0.00180229
C    -0.23304    0.0107603    -1.24518
C    -0.245224    0.0210417    1.21528
C    1.1469    0.0781213    -1.26839
C    1.13445    0.00226454    1.19484
C    1.87151    -0.0470327    0.0809006
H    -2.67298    -0.398301    -0.684279
H    -2.48706    -0.239418    0.982683
H    -0.839441    -0.040983    -2.15095
H    -0.683484    0.185842    2.24279
H    1.67543    -0.143685    -2.19466
H    1.76926    -0.0890073    2.08272
H    2.87325    -0.359238    0.109408
14

N    -2.34366    0.0197287    -0.00377718
C    -0.912884    0.0295314    -0.00787116
C    -0.236336    0.0040852    -1.24776
C    -0.247048    0.0255741    1.22678
C    1.15888    0.0804776    -1.26577
C    1.13116    -0.00263393    1.18974
C    1.8586    -0.0470301    0.0845883
H    -2.66707    -0.399924    -0.715132
H    -2.50339    -0.221443    0.992438
H    -0.890112    -0.0416564    -2.17224
H    -0.660833    0.153702    2.25397
H    1.68479    -0.123151    -2.20214
H    1.76131    -0.0615486    2.06619
H    2.84322    -0.355926    0.0712155
14

N    -2.3314    0.0228559    0.00462087
C    -0.908005    0.0305539    -0.0135788
C    -0.238435    -0.00195787    -1.25202
C    -0.247851    0.0309158    1.23962
C    1.17078    0.0812308    -1.26017
C    1.12783    -0.00768542    1.18644
C    1.84315    -0.0467061    0.0822265
H    -2.70765    -0.439491    -0.815346
H    -2.53642    -0.202841    1.00446
H    -0.924743    -0.0420077    -2.17663
H    -0.640515    0.116886    2.24656
H    1.6922    -0.0972252    -2.20214
H    1.74439    -0.0335151    2.05358
H    2.82871    -0.351705    0.0335876
14

N    -2.31556    0.0258532    0.0140481
C    -0.906351    0.0317185    -0.0182549
C    -0.239465    -0.00738155    -1.25835
C    -0.247228    0.0368369    1.25256
C    1.18175    0.0805136    -1.25216
C    1.12413    -0.012693    1.18496
C    1.82587    -0.0461194    0.0738314
H    -2.76289    -0.48222    -0.921818
H    -2.58342    -0.184375    1.01037
H    -0.937464    -0.0416733    -2.15998
H    -0.627362    0.0779693    2.23035
H    1.69881    -0.0668263    -2.19452
H    1.72313    -0.00653032    2.04914
H    2.82931    -0.346498    -0.00134618
14

N    -2.29809    0.0272739    0.0227631
C    -0.907785    0.0329199    -0.021228
C    -0.239244    -0.0121705    -1.26629
C    -0.24485    0.0431386    1.26417
C    1.19096    0.0785339    -1.24243
C    1.11987    -0.0175275    1.18531
C    1.80793    -0.045447    0.0598604
H    -2.81684    -0.511113    -1.00623
H    -2.63855    -0.1625    1.00201
H    -0.928674    -0.0406466    -2.12684
H    -0.626004    0.039028    2.21694
H    1.70677    -0.0330164    -2.1809
H    1.7022    0.0179595    2.0557
H    2.83929    -0.338792    -0.0314774
14

N    -2.27977    0.0266619    0.0310887
C    -0.912004    0.034231    -0.0219464
C    -0.237298    -0.0163133    -1.27466
C    -0.240634    0.0496939    1.27333
C    1.19762    0.0755384    -1.23179
C    1.11505    -0.0221194    1.18752
C    1.79071    -0.0449127    0.0411687
H    -2.87026    -0.526445    -1.07364
H    -2.69507    -0.131987    0.975483
H    -0.904711    -0.0391784    -2.0889
H    -0.639315    0.00123002    2.21465
H    1.71828    0.00331135    -2.16367
H    1.68471    0.0385875    2.07322
H    2.85003    -0.326452    -0.0548492
14

N    -2.26094    0.0240771    0.0395524
C    -0.918481    0.0357523    -0.0201188
C    -0.233075    -0.019826    -1.28195
C    -0.234834    0.056424    1.27954
C    1.20112    0.0717794    -1.22114
C    1.10989    -0.0264273    1.1917
C    1.7755    -0.044698    0.018981
H    -2.92874    -0.533889    -1.13775
H    -2.74801    -0.0895611    0.933507
H    -0.875197    -0.0375328    -2.06084
H    -0.667088    -0.0347111    2.22508
H    1.73472    0.0415218    -2.14488
H    1.6716    0.0539746    2.09836
H    2.85339    -0.30775    -0.0701285
14

N    -2.24185    0.0198319    0.048172
C    -0.926515    0.0375021    -0.0157606
C    -0.226275    -0.0227591    -1.2868
C    -0.228041    0.0632274    1.28303
C    1.20114    0.0675102    -1.21144
C    1.10479    -0.0304231    1.19794
C    1.76319    -0.0448805    -0.00515868
H    -2.99666    -0.539072    -1.20962
H    -2.7956    -0.0344997    0.884515
H    -0.849022    -0.035792    -2.05514
H    -0.705504    -0.0676765    2.24279
H    1.75617    0.0811435    -2.12559
H    1.66209    0.0627258    2.12546
H    2.84478    -0.282129    -0.0770004
14

N    -2.22291    0.0142812    0.0564248
C    -0.935265    0.0393757    -0.00920532
C    -0.217133    -0.0251908    -1.28837
C    -0.221092    0.0699297    1.2846
C    1.19768    0.062993    -1.2037
C    1.1003    -0.0340943    1.20616
C    1.7541    -0.0454192    -0.0294895
H    -3.07408    -0.54525    -1.29301
H    -2.83934    0.0324136    0.838883
H    -0.830674    -0.033795    -2.07773
H    -0.747858    -0.0956608    2.25775
H    1.7812    0.121649    -2.10569
H    1.65469    0.0636266    2.14847
H    2.82478    -0.250402    -0.0761987
14

N    -2.20484    0.00779003    0.063659
C    -0.943722    0.0411383    -0.00109807
C    -0.206534    -0.0272001    -1.28663
C    -0.214916    0.0762864    1.28519
C    1.1911    0.0584929    -1.19885
C    1.0969    -0.0374431    1.216
C    1.748    -0.0461893    -0.052174
H    -3.157    -0.553494    -1.38499
H    -2.88214    0.109599    0.80427
H    -0.81857    -0.0311917    -2.12573
H    -0.786492    -0.116113    2.25969
H    1.80714    0.162182    -2.08431
H    1.64831    0.0560099    2.16296
H    2.79882    -0.214348    -0.0691698
14

N    -2.18845    0.000956602    0.069767
C    -0.95072    0.0424429    0.00768871
C    -0.195874    -0.0288408    -1.28222
C    -0.210318    0.0820453    1.28558
C    1.18204    0.0542569    -1.19765
C    1.09502    -0.0404803    1.22677
C    1.74427    -0.0470396    -0.0714498
H    -3.24262    -0.565485    -1.48362
H    -2.9259    0.194229    0.783373
H    -0.806136    -0.0275913    -2.188
H    -0.815304    -0.126882    2.24223
H    1.83058    0.201436    -2.0607
H    1.64294    0.0400215    2.1675
H    2.7751    -0.175981    -0.0576066
14

N    -2.17457    -0.00536651    0.07506
C    -0.955094    0.04286    0.0162328
C    -0.186717    -0.0301421    -1.27632
C    -0.207721    0.0870397    1.2861
C    1.17129    0.0504912    -1.20049
C    1.09487    -0.043225    1.23741
C    1.74222    -0.0478461    -0.0857797
H    -3.32999    -0.583281    -1.5887
H    -2.97052    0.281483    0.774874
H    -0.785079    -0.0227543    -2.24806
H    -0.831853    -0.127153    2.20542
H    1.84811    0.23784    -2.03497
H    1.6398    0.0165281    2.16383
H    2.76162    -0.136878    -0.043145
14

N    -2.16406    -0.010233    0.0797798
C    -0.955877    0.0419236    0.023722
C    -0.180371    -0.0311261    -1.2702
C    -0.207027    0.0912502    1.28657
C    1.15966    0.0473489    -1.20726
C    1.09648    -0.0457086    1.2467
C    1.74129    -0.0485389    -0.0939941
H    -3.41729    -0.607581    -1.69774
H    -3.01438    0.364648    0.775166
H    -0.749382    -0.0167042    -2.28937
H    -0.83819    -0.117844    2.15587
H    1.85706    0.269961    -2.00872
H    1.64089    -0.0132418    2.15581
H    2.7633    -0.0978689    -0.0273194
14

N    -2.15766    -0.0126554    0.0843163
C    -0.952434    0.0392048    0.0294995
C    -0.177552    -0.0318275    -1.26475
C    -0.207707    0.0947946    1.28645
C    1.14787    0.044921    -1.21735
C    1.09969    -0.047978    1.25354
C    1.74132    -0.04909    -0.0954083
H    -3.50347    -0.638529    -1.80861
H    -3.05452    0.435827    0.77851
H    -0.698319    -0.00965717    -2.30132
H    -0.840021    -0.101263    2.10456
H    1.85625    0.296923    -1.98516
H    1.64814    -0.0480452    2.14779
H    2.78015    -0.0592156    -0.011657
14

N    -2.15584    -0.0117028    0.0894379
C    -0.944525    0.0344076    0.0330504
C    -0.178273    -0.0323071    -1.26015
C    -0.209045    0.0978453    1.28502
C    1.13651    0.0432244    -1.22976
C    1.10433    -0.0500947    1.2572
C    1.7425    -0.0494666    -0.089894
H    -3.58923    -0.675999    -1.92125
H    -3.08564    0.486418    0.776308
H    -0.637365    -0.0017921    -2.28335
H    -0.844385    -0.0801838    2.06317
H    1.84641    0.318595    -1.96867
H    1.66247    -0.0867115    2.1429
H    2.80714    -0.0211274    0.00229451
14

N    -2.15882    -0.00678026    0.0959507
C    -0.932337    0.0274634    0.0340558
C    -0.181944    -0.0326548    -1.25581
C    -0.210415    0.100519    1.28171
C    1.12605    0.0421954    -1.24322
C    1.11021    -0.0521355    1.25752
C    1.74526    -0.0495845    -0.0778996
H    -3.67572    -0.719119    -2.03623
H    -3.10222    0.509358    0.760066
H    -0.576761    0.00702348    -2.24515
H    -0.856635    -0.056786    2.04039
H    1.82963    0.335429    -1.96384
H    1.68307    -0.127923    2.1418
H    2.83606    0.0157644    0.0131515
14

N    -2.16606    0.00198623    0.104014
C    -0.916494    0.0185664    0.0325192
C    -0.187639    -0.0329875    -1.25075
C    -0.211488    0.102805    1.27633
C    1.11688    0.0417098    -1.25635
C    1.11726    -0.0542013    1.25492
C    1.75002    -0.0492947    -0.0604231
H    -3.76364    -0.766414    -2.15381
H    -3.10579    0.504178    0.728447
H    -0.528462    0.0173904    -2.20287
H    -0.877917    -0.0320207    2.03923
H    1.8085    0.348033    -1.9742
H    1.70739    -0.169919    2.14264
H    2.85843    0.0502986    0.0200319
