14

N    -0.037755    -2.27513    0
C    0.0323366    -0.951986    0
C    -1.20911    -0.228239    0
C    1.25999    -0.198351    0
C    -1.20874    1.1394    0
C    1.22173    1.16569    0
C    -0.0046246    1.8514    0
H    -1.18653    -2.95793    0
H    0.809047    -2.8388    0
H    -2.11685    -0.795912    0
H    2.18883    -0.72788    0
H    -2.14221    1.67272    0
H    2.13815    1.72509    0
H    -0.0172258    2.92578    0
