14

N    -0.0369865    -2.34314    0
C    0.0120553    -1.03319    0
C    -1.18737    -0.24638    0
C    1.20973    -0.23409    0
C    -1.1644    1.1829    0
C    1.18017    1.19166    0
C    0.00851008    1.90788    0
H    -1.21946    -3.12817    0
H    0.859728    -2.83004    0
H    -2.12804    -0.751504    0
H    2.1641    -0.716396    0
H    -2.10999    1.69286    0
H    2.12393    1.70546    0
H    0.000233702    2.97695    0
