14

N    -1.68467e-08    0.000184356    -2.31045
C    -1.71913e-08    0.000209073    -0.93988
C    -1.24336e-08    -1.24684    -0.249994
C    -2.22957e-08    1.24728    -0.250039
C    -1.65854e-08    -1.23267    1.17286
C    -2.27621e-08    1.23316    1.17281
C    -2.03546e-08    0.000259485    1.85548
H    -1.76237e-08    -0.868711    -2.82199
H    -1.58125e-08    0.869061    -2.82202
H    -9.50595e-09    -2.166    -0.799447
H    -2.40764e-08    2.16642    -0.799526
H    -1.6841e-08    -2.15318    1.72039
H    -2.49288e-08    2.15369    1.72031
H    -2.14259e-08    0.00027886    2.92981
