14

N    0.00878659    -0.0280073    -2.30834
C    0.00688728    -0.0316975    -0.925522
C    0.00446916    -1.26763    -0.203551
C    0.00731309    1.20036    -0.196961
C    0.00260938    -1.26371    1.15685
C    0.00543589    1.18918    1.1634
C    0.00308081    -0.0390931    1.84584
H    -0.85561    -0.025588    -2.84137
H    0.874645    -0.0275881    -2.839
H    0.00419098    -2.17619    -0.766957
H    0.00913226    2.11192    -0.755507
H    0.000793137    -2.18211    1.70748
H    0.00573283    2.10463    1.71893
H    0.00160645    -0.0419577    2.91928
