14

N    -2.32116    0.0692989    -1.46342e-07
C    -0.93885    -0.0316807    -1.7205e-07
C    -0.246976    -0.0441796    -1.24519
C    -0.246976    -0.04418    1.24519
C    1.17111    -0.00920267    -1.23331
C    1.17111    -0.00920303    1.23331
C    1.8544    0.0221444    -1.85935e-07
H    -2.77245    -0.233403    -0.859735
H    -2.77245    -0.233404    0.859735
H    -0.795226    -0.0274693    -2.16484
H    -0.795226    -0.0274699    2.16484
H    1.71479    0.00633117    -2.15664
H    1.71479    0.00633054    2.15664
H    2.92683    0.072809    -1.86838e-07
