14

N    -2.32178    0.0457392    -0.0017378
C    -0.94084    -0.0202251    -0.0018398
C    -0.247755    -0.00666502    -1.24723
C    -0.247592    -0.00711361    1.24346
C    1.17245    0.000798165    -1.23404
C    1.17261    0.000354357    1.23009
C    1.85689    0.00284742    -0.00201822
H    -2.79081    -0.275242    -0.842623
H    -2.7907    -0.275545    0.839093
H    -0.79562    0.00295846    -2.16675
H    -0.795338    0.00217863    2.16306
H    1.72198    0.00585729    -2.15312
H    1.72226    0.00508243    2.1491
H    2.93074    0.011406    -0.00208675
