14

N    -4.29154e-05    -5.12128e-05    -2.31436
C    -4.36799e-05    -5.45261e-05    -0.941764
C    -3.59089e-05    -1.24846    -0.250349
C    -5.22082e-05    1.24835    -0.250343
C    -3.67824e-05    -1.23328    1.17335
C    -5.28837e-05    1.23316    1.17335
C    -4.52042e-05    -6.12719e-05    1.8565
H    -3.69731e-05    -0.866521    -2.82539
H    -4.82862e-05    0.866421    -2.82538
H    -2.96033e-05    -2.16929    -0.798629
H    -5.79234e-05    2.16918    -0.798619
H    -3.10755e-05    -2.1531    1.72334
H    -5.91887e-05    2.15297    1.72335
H    -4.5786e-05    -6.38638e-05    2.93183
