14

N    0    8.85501e-05    -2.32009
C    0    1.09349e-05    -0.931908
C    0    -1.20328    -0.21298
C    0    1.20322    -0.212845
C    0    -1.19396    1.17386
C    0    1.19374    1.174
C    0    -0.000146363    1.88143
H    0    -0.866992    -2.83089
H    0    0.867227    -2.8308
H    0    -2.13822    -0.74214
H    0    2.13822    -0.741901
H    0    -2.13037    1.70118
H    0    2.13009    1.70142
H    0    -0.000206401    2.95524
