 14

      N         0.137577         0.000003         -2.316022
      C         0.041562         0.000003         -0.942935
      C         0.032173        -1.244128         -0.244776
      C         0.032167         1.244133         -0.244776
      C        -0.003322        -1.229909          1.165290
      C        -0.003327         1.229914          1.165290
      C        -0.022633         0.000002          1.851399
      H        -0.124146        -0.864123         -2.786775
      H        -0.124149         0.864128         -2.786775
      H         0.056786        -2.163245         -0.792609
      H         0.056777         2.163251         -0.792609
      H        -0.015663        -2.149350          1.714528
      H        -0.015673         2.149354          1.714528
      H        -0.048151         0.000002          2.924677
