14

 N   -2.33177639072772   -0.00000000000001    0.00000000254085
 C   -0.94016732066667    0.00000000000000    0.00000000031058
 C   -0.24700568389613    1.24528784449422   -0.00000000215674
 C   -0.24700568389612   -1.24528784449421   -0.00000000306691
 C    1.17593609289544    1.23295798667465    0.00000000049583
 C    1.17593609289544   -1.23295798667465    0.00000000028034
 C    1.86174624906082    0.00000000000000    0.00000000145499
 H   -2.74460842670286    0.92977338182724   -0.00000001165285
 H   -2.74460842670286   -0.92977338182725    0.00000000816499
 H   -0.79560601019897    2.16462422272529   -0.00000000236147
 H   -0.79560601019896   -2.16462422272529   -0.00000000324285
 H    1.72457100018737    2.15269808866161    0.00000000141885
 H    1.72457100018738   -2.15269808866160    0.00000000148425
 H    2.93549191423412    0.00000000000000    0.00000000281866
