 14

      N        -0.059385        -2.307183          0.000000
      C         0.017776        -0.958313          0.000000
      C        -1.211139        -0.227367          0.000000
      C         1.234881        -0.206703          0.000000
      C        -1.205811         1.139862          0.000000
      C         1.217276         1.156976          0.000000
      C         0.001707         1.845722          0.000000
      H        -4.214571        -5.088263          0.000000
      H         0.894667        -2.705165          0.000000
      H        -2.129223        -0.780247          0.000000
      H         2.167736        -0.739620          0.000000
      H        -2.133274         1.680910          0.000000
      H         2.137184         1.711035          0.000000
      H        -0.005352         2.919058          0.000000
