14

N    1.59375e-07    -2.93437e-06    -2.31678
C    1.61214e-07    -1.45742e-06    -0.932693
C    4.1745e-08    -1.23318    -0.209641
C    2.82604e-07    1.23318    -0.209644
C    4.42586e-08    -1.22588    1.15072
C    2.83705e-07    1.22588    1.15072
C    1.64891e-07    1.4963e-06    1.83529
H    -0.866186    -3.41566e-06    -2.84707
H    0.866187    -3.58484e-06    -2.84707
H    -4.78763e-08    -2.14321    -0.770937
H    3.70733e-07    2.14321    -0.770942
H    -4.44883e-08    -2.14208    1.70581
H    3.73927e-07    2.14208    1.7058
H    1.66319e-07    2.64322e-06    2.91009
