14

N    0    9.3777e-07    -2.3486
C    0    7.46354e-07    -1.00708
C    0    -1.18943    -0.250887
C    0    1.18943    -0.250887
C    0    -1.17218    1.18163
C    0    1.17218    1.18163
C    0    3.31269e-07    1.90202
H    0    -0.858381    -2.88935
H    0    0.858383    -2.88935
H    0    -2.13501    -0.751002
H    0    2.13501    -0.751002
H    0    -2.11921    1.68561
H    0    2.11921    1.68561
H    0    1.78619e-07    2.97186
