14

N    0    -6.24598e-10    -2.27065
C    0    -5.12497e-10    -0.940551
C    0    -1.2377    -0.217527
C    0    1.2377    -0.217527
C    0    -1.21704    1.1451
C    0    1.21704    1.1451
C    0    -2.78219e-10    1.83919
H    0    -0.874688    -2.81017
H    0    0.874688    -2.81017
H    0    -2.15619    -0.764481
H    0    2.15619    -0.764481
H    0    -2.13897    1.69149
H    0    2.13897    1.69149
H    0    -1.87837e-10    2.91158
