14

N    -5.93073e-05    -6.3099e-05    -2.35239
C    -5.99563e-05    -6.29987e-05    -1.00719
C    -5.20039e-05    -1.19185    -0.252624
C    -6.86207e-05    1.19172    -0.252624
C    -5.27915e-05    -1.1752    1.18056
C    -6.91797e-05    1.17508    1.18056
C    -6.13183e-05    -6.278e-05    1.8987
H    -5.29821e-05    -0.868843    -2.88043
H    -6.51058e-05    0.868717    -2.88043
H    -4.51652e-05    -2.13985    -0.750548
H    -7.50036e-05    2.13972    -0.750548
H    -4.6413e-05    -2.1242    1.68392
H    -7.60375e-05    2.12407    1.68392
H    -6.18119e-05    -6.26994e-05    2.96832
