14

N    -3.15275e-05    -4.69669e-05    -2.35234
C    -2.94367e-05    -4.15263e-05    -1.00715
C    -2.46726e-05    -1.19182    -0.252575
C    -3.18552e-05    1.19175    -0.252584
C    -2.24951e-05    -1.17517    1.1806
C    -2.95774e-05    1.17511    1.18059
C    -2.492e-05    -2.97735e-05    1.89874
H    -2.97303e-05    -0.868827    -2.88038
H    -3.49662e-05    0.868728    -2.88039
H    -2.25899e-05    -2.13982    -0.750496
H    -3.54858e-05    2.13974    -0.750513
H    -1.88531e-05    -2.12417    1.68398
H    -3.16547e-05    2.12411    1.68396
H    -2.32574e-05    -2.54474e-05    2.96837
