14

N    0    3.25951e-05    -2.3512
C    0    1.81534e-05    -1.0071
C    0    -1.18926    -0.252106
C    0    1.18928    -0.252081
C    0    -1.17275    1.1794
C    0    1.17274    1.17942
C    0    -1.30695e-05    1.89884
H    0    -0.867789    -2.87884
H    0    0.867865    -2.87882
H    0    -2.13667    -0.748742
H    0    2.1367    -0.748696
H    0    -2.12153    1.68051
H    0    2.1215    1.68055
H    0    -2.45575e-05    2.96803
