14

N    -2.37274    0.0995297    0.00889619
C    -1.03245    -0.0876637    0.0204116
C    -0.258539    -0.116188    -1.11776
C    -0.203474    0.0382367    1.21421
C    1.20124    -0.131065    -1.20083
C    1.2003    0.145292    1.12854
C    1.95362    0.0486828    -0.0192104
H    -3.31786    -1.10372    -0.997445
H    -2.98761    1.30398    0.342144
H    -0.689933    -0.445512    -1.98403
H    -0.661914    0.221658    2.15567
H    1.70695    -0.189612    -2.1798
H    1.71794    0.329881    2.17406
H    2.91468    0.0188766    0.06067
