14

N    -2.33377    0.102235    -0.0135771
C    -0.949645    -0.0267486    -0.0497537
C    -0.287115    -0.0107081    -1.18004
C    -0.227387    -0.0168763    1.20011
C    1.13953    0.0622782    -1.14746
C    1.14329    -0.0209661    1.16949
C    1.89825    -0.0053074    -0.0258087
H    -2.7878    -0.58425    -0.646545
H    -2.50118    -0.161716    0.985863
H    -0.617277    -0.202    -2.30699
H    -0.79537    0.276132    2.14171
H    1.68292    -0.0761525    -2.06683
H    1.73144    -0.343432    2.17917
H    3.13991    0.185003    0.300803
14

N    -2.32936    0.102507    -0.00826926
C    -0.958254    -0.026649    -0.0524291
C    -0.281777    -0.0110787    -1.1834
C    -0.218139    -0.0151965    1.20043
C    1.13017    0.0638564    -1.14801
C    1.13138    -0.0218703    1.16866
C    1.89581    -0.00878277    -0.0134246
H    -2.81967    -0.593834    -0.724864
H    -2.43701    -0.142356    0.980582
H    -0.616998    -0.209775    -2.23356
H    -0.754791    0.256483    2.10432
H    1.71601    -0.0825471    -2.10636
H    1.73918    -0.326762    2.17338
H    3.17571    0.205172    0.257025
14

N    -2.32427    0.10111    -0.00342188
C    -0.968169    -0.0257319    -0.0527854
C    -0.272611    -0.0118635    -1.19055
C    -0.208404    -0.0124203    1.20028
C    1.12194    0.0642921    -1.15127
C    1.1214    -0.0248594    1.17224
C    1.89836    -0.0104041    0.00156209
H    -2.85227    -0.590674    -0.798033
H    -2.39067    -0.121406    0.983298
H    -0.62149    -0.21197    -2.1424
H    -0.713053    0.228693    2.06441
H    1.7353    -0.0815451    -2.13373
H    1.72243    -0.290836    2.1325
H    3.13105    0.208608    0.186178
14

N    -2.31869    0.0984461    0.000375455
C    -0.978525    -0.0241599    -0.0508016
C    -0.25982    -0.0125507    -1.19903
C    -0.198434    -0.00901481    1.19826
C    1.11607    0.0634158    -1.15757
C    1.11375    -0.0295158    1.17902
C    1.90416    -0.0102244    0.0176258
H    -2.88532    -0.57723    -0.86314
H    -2.36419    -0.100778    0.99891
H    -0.638375    -0.213573    -2.06186
H    -0.679791    0.197718    2.03869
H    1.73398    -0.0719316    -2.13813
H    1.68792    -0.240706    2.07093
H    3.02368    0.197043    0.0983994
14

N    -2.31262    0.0951049    0.0035146
C    -0.988466    -0.0220799    -0.046583
C    -0.243785    -0.0126984    -1.20679
C    -0.188711    -0.00533132    1.19354
C    1.11323    0.0612309    -1.16633
C    1.10835    -0.0352194    1.1869
C    1.90962    -0.00870962    0.0331756
H    -2.9221    -0.560399    -0.924175
H    -2.35716    -0.0802803    1.0253
H    -0.674252    -0.219124    -2.01404
H    -0.661376    0.16673    2.03864
H    1.71182    -0.0542316    -2.11852
H    1.64856    -0.183219    2.01203
H    2.89297    0.176516    0.00465738
14

N    -2.30608    0.0916679    0.00701998
C    -0.997233    -0.0196374    -0.0403381
C    -0.225324    -0.0121118    -1.21293
C    -0.180026    -0.00154117    1.18617
C    1.11336    0.0579127    -1.17614
C    1.10495    -0.0414092    1.19369
C    1.91071    -0.00654662    0.0470334
H    -2.9676    -0.548158    -0.989389
H    -2.36717    -0.0582828    1.05541
H    -0.730778    -0.230492    -2.00692
H    -0.658723    0.136511    2.06621
H    1.67569    -0.0305149    -2.08417
H    1.61848    -0.12389    1.97976
H    2.78469    0.154832    -0.088379
14

N    -2.29907    0.0886755    0.0121347
C    -1.00424    -0.016991    -0.0323545
C    -0.205919    -0.0109146    -1.21785
C    -0.173392    0.00229324    1.17716
C    1.11579    0.0537403    -1.18509
C    1.10353    -0.0477574    1.19795
C    1.90457    -0.00436335    0.058576
H    -3.02773    -0.548455    -1.07015
H    -2.38981    -0.0323963    1.08161
H    -0.801481    -0.245754    -2.03287
H    -0.66729    0.106334    2.11306
H    1.6373    -0.0034436    -2.05117
H    1.60716    -0.0649946    1.98982
H    2.73338    0.138144    -0.179564
14

N    -2.29185    0.0864948    0.0198217
C    -1.0091    -0.0143244    -0.0229982
C    -0.187641    -0.00946388    -1.22277
C    -0.16981    0.00608782    1.16807
C    1.11951    0.0489919    -1.19145
C    1.10451    -0.0541518    1.19957
C    1.89071    -0.00247092    0.0673732
H    -3.10633    -0.566924    -1.17634
H    -2.41871    0.00015209    1.09819
H    -0.871887    -0.259953    -2.07347
H    -0.67922    0.0754879    2.16376
H    1.60897    0.0249016    -2.03612
H    1.61546    -0.00637396    2.04346
H    2.74965    0.128379    -0.26854
14

N    -2.28539    0.084932    0.0299948
C    -1.01152    -0.0118145    -0.012787
C    -0.172743    -0.00817184    -1.22901
C    -0.170009    0.00965998    1.16061
C    1.12364    0.0438727    -1.19423
C    1.10861    -0.060506    1.19983
C    1.87112    -0.000780735    0.0726736
H    -3.19781    -0.601251    -1.30419
H    -2.44697    0.0419386    1.10094
H    -0.924115    -0.267323    -2.108
H    -0.686638    0.0442811    2.20144
H    1.59923    0.0536227    -2.04928
H    1.6354    0.0517198    2.12626
H    2.8182    0.123081    -0.349122
14

N    -2.28097    0.0833344    0.0416769
C    -1.01103    -0.00952802    -0.00249481
C    -0.163096    -0.00736224    -1.23723
C    -0.174298    0.0127866    1.15614
C    1.12767    0.0385128    -1.1937
C    1.11661    -0.0665424    1.20091
C    1.8495    0.00102611    0.0733504
H    -3.29013    -0.642717    -1.43769
H    -2.47051    0.0941425    1.08746
H    -0.943985    -0.263669    -2.12168
H    -0.684695    0.0139644    2.21388
H    1.61005    0.0825345    -2.08988
H    1.65388    0.10637    2.21302
H    2.90587    0.117728    -0.40799
14

N    -2.279    0.0813895    0.0540446
C    -1.00705    -0.00741228    0.00706002
C    -0.159666    -0.00718407    -1.2471
C    -0.182388    0.0153113    1.15523
C    1.1316    0.033028    -1.1913
C    1.12888    -0.0717526    1.20505
C    1.82991    0.00325362    0.0684326
H    -3.37992    -0.687017    -1.56995
H    -2.48908    0.155866    1.06195
H    -0.926719    -0.247777    -2.1105
H    -0.673255    -0.0139973    2.198
H    1.63646    0.111014    -2.14561
H    1.65871    0.152293    2.27682
H    2.9753    0.108442    -0.430315
14

N    -2.27938    0.0789926    0.0658819
C    -0.999278    -0.0054194    0.0153079
C    -0.162238    -0.00756118    -1.25736
C    -0.193241    0.0171835    1.15763
C    1.13572    0.0275942    -1.18918
C    1.14508    -0.075587    1.21358
C    1.81551    0.00604171    0.0577709
H    -3.46794    -0.732368    -1.69958
H    -2.50423    0.225412    1.03691
H    -0.8787    -0.221613    -2.08166
H    -0.656842    -0.0386391    2.16105
H    1.66876    0.137217    -2.19682
H    1.64392    0.184247    2.29898
H    2.99864    0.0934989    -0.407329
14

N    -2.28181    0.0760699    0.0759629
C    -0.98788    -0.00358303    0.0218267
C    -0.169573    -0.00823306    -1.26616
C    -0.205222    0.0184545    1.16242
C    1.14035    0.0224551    -1.18941
C    1.164    -0.0777099    1.22623
C    1.80761    0.00932854    0.0423693
H    -3.55437    -0.7774    -1.8255
H    -2.51791    0.301636    1.02474
H    -0.815017    -0.189362    -2.05099
H    -0.64307    -0.0598857    2.11755
H    1.69649    0.158379    -2.22392
H    1.61188    0.199768    2.27597
H    2.96727    0.0735602    -0.340679
14

N    -2.28594    0.0727264    0.0839808
C    -0.973425    -0.00201867    0.0262104
C    -0.17992    -0.00890171    -1.27154
C    -0.216456    0.0192428    1.16855
C    1.1456    0.0178504    -1.19333
C    1.18375    -0.0781492    1.24114
C    1.80548    0.0128971    0.0242177
H    -3.6396    -0.821864    -1.94814
H    -2.53076    0.382833    1.02806
H    -0.753563    -0.155463    -2.03737
H    -0.640071    -0.0784621    2.08336
H    1.71254    0.171963    -2.21515
H    1.57219    0.200708    2.22066
H    2.89444    0.0509528    -0.241552
14

N    -2.29139    0.0693271    0.0905773
C    -0.956848    -0.000876519    0.028096
C    -0.191637    -0.00939899    -1.27206
C    -0.225201    0.0196653    1.1753
C    1.15119    0.013916    -1.20103
C    1.2021    -0.0772713    1.25531
C    1.80681    0.0164753    0.00569272
H    -3.72402    -0.866073    -2.06856
H    -2.54158    0.464783    1.03869
H    -0.708168    -0.122557    -2.05543
H    -0.653781    -0.0953101    2.06979
H    1.71583    0.176917    -2.17139
H    1.53829    0.19283    2.15747
H    2.80978    0.0283877    -0.125308
14

N    -2.29768    0.0664079    0.0967597
C    -0.939362    -0.000295409    0.0272691
C    -0.203611    -0.0097447    -1.26743
C    -0.230159    0.0197588    1.18252
C    1.15643    0.0106204    -1.21137
C    1.21692    -0.0755952    1.2656
C    1.80874    0.0198448    -0.0111839
H    -3.80789    -0.910374    -2.18768
H    -2.54885    0.541151    1.04432
H    -0.684081    -0.0907145    -2.10894
H    -0.685873    -0.110779    2.07955
H    1.71174    0.174316    -2.10615
H    1.5231    0.183479    2.11305
H    2.74725    0.00770702    -0.00467521
