14

N    0    -6.79683e-09    -2.27062
C    0    -5.75727e-09    -0.940548
C    0    -1.23773    -0.217466
C    0    1.23773    -0.217466
C    0    -1.21704    1.14516
C    0    1.21704    1.14516
C    0    -3.58461e-09    1.83926
H    0    -0.874334    -2.8106
H    0    0.874334    -2.8106
H    0    -2.15633    -0.764239
H    0    2.15633    -0.764239
H    0    -2.13904    1.69146
H    0    2.13904    1.69146
H    0    -2.74645e-09    2.91165
