 14

      N        -0.048423        -2.298625          0.000000
      C         0.015805        -0.968346          0.000000
      C        -1.216653        -0.227525          0.000000
      C         1.237548        -0.212485          0.000000
      C        -1.206857         1.139398          0.000000
      C         1.215996         1.154761          0.000000
      C         0.000389         1.846117          0.000000
      H        -1.572976        -3.255566          0.000000
      H         0.895925        -2.702033          0.000000
      H        -2.133961        -0.779409          0.000000
      H         2.170705        -0.743521          0.000000
      H        -2.134648         1.680025          0.000000
      H         2.138059         1.705095          0.000000
      H        -0.005585         2.919065          0.000000
