 14

      N        -2.381668         0.014639         -0.189183
      C        -0.927738        -0.017695         -0.084019
      C        -0.188652         0.114865         -1.253528
      C        -0.251660        -0.126619          1.130209
      C         1.195486         0.121298         -1.211117
      C         1.131245        -0.103949          1.168067
      C         1.858197         0.016602         -0.002589
      H        -2.704205        -0.964311         -0.026342
      H        -2.701450         0.469966          0.671322
      H        -0.707165         0.219855         -2.185355
      H        -0.809746        -0.235828          2.040681
      H         1.755486         0.221131         -2.121460
      H         1.639697        -0.187263          2.110232
      H         2.931348         0.029794          0.027924
