 14

      N        -2.342162         0.064512          0.000000
      C        -0.941269        -0.001738          0.000000
      C        -0.230944         0.000071         -1.202815
      C        -0.230944         0.000071          1.202815
      C         1.158475        -0.000320         -1.198578
      C         1.158475        -0.000320          1.198578
      C         1.865216        -0.000464          0.000000
      H        -2.761803        -0.336852         -0.831633
      H        -2.761803        -0.336852          0.831633
      H        -0.773160         0.005196         -2.145173
      H        -0.773160         0.005196          2.145173
      H         1.692754        -0.000701         -2.144561
      H         1.692754        -0.000701          2.144561
      H         2.950287        -0.001386          0.000000
