14

N    -0.051805781929287545    -2.3196010635172097    0.1558448098449553
C    0.0052518827050383465    -0.9564475336166985    0.07994577483379166
C    -1.2166777072766097    -0.22961559995977798    0.09125697999538082
C    1.2201699170108882    -0.22380302225191331    0.009293066166979206
C    -1.2062534719091684    1.1396178056400543    0.03120171168805833
C    1.2040797601070903    1.1479190296737447    -0.04349738225265257
C    -0.002948104436932213    1.8398222988987265    -0.035795657786473124
H    -1.3538647289018308    -3.0202641205775063    -0.4554765394570492
H    0.8965128700869197    -2.7244710424344207    0.15404931686896547
H    -2.1345572078372355    -0.7775394823751905    0.15132740393794902
H    2.1511832889587383    -0.7578726643464418    -0.004537170675736284
H    -2.1338426175186913    1.6805390595991725    0.040663336671197335
H    2.1288529791627697    1.6914307489453377    -0.09372602559741113
H    -0.007231058381801177    2.9121716534557534    -0.08054961894618279
