14

N    -2.37979    -0.0710687    -0.222226
C    -0.924497    -0.0445576    -0.0891155
C    -0.184059    0.115976    -1.25537
C    -0.25474    -0.169329    1.12159
C    1.20058    0.150974    -1.21075
C    1.12574    -0.133959    1.16207
C    1.85691    0.0264293    -0.00522719
H    -2.6731    -0.931001    0.27566
H    -2.71854    0.62964    0.461632
H    -0.70099    0.212104    -2.18837
H    -0.818304    -0.293505    2.02596
H    1.75963    0.275445    -2.1187
H    1.63339    -0.231132    2.10158
H    2.92901    0.0525    0.0379548
