14

N    -0.15119007716062308    -2.3404339023573586    0.3352209712449254
C    -0.06898266773159432    -0.9295491280289403    0.1660157174992392
C    -1.251207112796658    -0.1929743117026694    0.20658812565073437
C    1.1449590557920304    -0.2673569100468682    0.00628574150866614
C    -1.2113987994915436    1.1778982996764533    0.07971173562987681
C    1.1734668797740238    1.111107695612521    -0.10439676229202272
C    -0.0005768613665399131    1.8351116639341094    -0.07453557289157411
H    -0.8303907120889676    -2.9797369306184605    -0.964770623252636
H    0.804896446472801    -2.7394111120525593    0.31615010729639215
H    -2.1814578080930462    -0.7069074380783622    0.3461191006777156
H    2.058273074696275    -0.8301358233030458    -0.036091213840852836
H    -2.1241127843592973    1.742876235280582    0.1122172288319726
H    2.1138285798647165    1.6167644798668577    -0.22018320672562547
H    0.02276280103654032    2.9046332489513715    -0.16833134404503916
