14

N    0    6.68997e-16    -2.27059
C    0    3.07549e-16    -0.940503
C    0    -1.23768    -0.217504
C    0    1.23768    -0.217504
C    0    -1.21704    1.14509
C    0    1.21704    1.14509
C    0    -1.91199e-16    1.83914
H    0    -0.874648    -2.81016
H    0    0.874648    -2.81016
H    0    -2.15616    -0.764432
H    0    2.15616    -0.764432
H    0    -2.13898    1.69142
H    0    2.13898    1.69142
H    0    -3.25532e-16    2.91151
