 14

      N        -2.299233        -0.103660         -0.006817
      C        -0.933968        -0.075046         -0.006261
      C        -0.229374        -0.047597         -1.248783
      C        -0.230354        -0.049170          1.236849
      C         1.167199        -0.000433         -1.228826
      C         1.166234        -0.001982          1.218054
      C         1.860609         0.021537         -0.005098
      H        -2.809948        -0.190448         -0.887439
      H        -2.810643        -0.191562          0.873291
      H        -0.776418        -0.062251         -2.168145
      H        -0.778123        -0.064987          2.155761
      H         1.713913         0.019026         -2.149858
      H         1.712222         0.016312          2.139540
      H         2.933155         0.058065         -0.004652
