 14

      N        -2.314910        -0.039649         -0.006783
      C        -0.938066        -0.057418         -0.006252
      C        -0.238421        -0.033161         -1.249900
      C        -0.239402        -0.034735          1.237978
      C         1.169788        -0.001806         -1.232996
      C         1.168820        -0.003359          1.222224
      C         1.859753         0.010888         -0.005105
      H        -2.786906        -0.247265         -0.886586
      H        -2.787599        -0.248378          0.872384
      H        -0.786164        -0.035843         -2.169304
      H        -0.787869        -0.038580          2.156945
      H         1.717526         0.012114         -2.153365
      H         1.715832         0.009396          2.143042
      H         2.932889         0.035601         -0.004666
