 14

      N        -0.059737        -2.307117          0.000000
      C         0.017540        -0.958360          0.000000
      C        -1.211263        -0.227151          0.000000
      C         1.234864        -0.206762          0.000000
      C        -1.205756         1.140021          0.000000
      C         1.217339         1.156905          0.000000
      C         0.001898         1.845791          0.000000
      H        -3.381582        -4.535420          0.000000
      H         0.894263        -2.705244          0.000000
      H        -2.129410        -0.779918          0.000000
      H         2.167672        -0.739762          0.000000
      H        -2.133157         1.681189          0.000000
      H         2.137321         1.710854          0.000000
      H        -0.005043         2.919126          0.000000
