14

N    0    3.37728e-06    -2.35185
C    0    -1.79259e-07    -1.00741
C    0    -1.18817    -0.251995
C    0    1.18816    -0.251989
C    0    -1.17164    1.17991
C    0    1.17162    1.17992
C    0    -7.87186e-06    1.90052
H    0    -0.867593    -2.87951
H    0    0.867603    -2.8795
H    0    -2.13389    -0.751383
H    0    2.13389    -0.751372
H    0    -2.11925    1.68228
H    0    2.11923    1.68229
H    0    -1.07016e-05    2.9702
