14

N    -0.000402911    -0.000551208    -2.32092
C    -0.000401791    -0.000629643    -0.937291
C    -0.000312516    -1.23585    -0.209218
C    -0.00048988    1.23451    -0.209078
C    -0.000311954    -1.22829    1.15271
C    -0.00048822    1.22679    1.15285
C    -0.000399525    -0.000786984    1.8383
H    -0.873351    -0.000583887    -2.85006
H    0.872544    -0.000458537    -2.85007
H    -0.000247734    -2.14455    -0.772916
H    -0.000555587    2.14328    -0.772673
H    -0.000245794    -2.14352    1.70982
H    -0.000553472    2.14196    1.71007
H    -0.000398646    -0.000847862    2.91222
