 14

      N        -2.342326         0.130219          0.001783
      C        -0.944110        -0.003860          0.001165
      C        -0.257220         0.012399         -1.245518
      C        -0.256248         0.011049          1.247328
      C         1.178463         0.003175         -1.237355
      C         1.179429         0.001835          1.238035
      C         1.860425        -0.006701          0.000069
      H        -2.754138        -0.375620         -0.776026
      H        -2.753531        -0.376462          0.779364
      H        -0.806507         0.039149         -2.164448
      H        -0.804817         0.036803          2.166715
      H         1.727737         0.002983         -2.156537
      H         1.729420         0.000647          2.156787
      H         2.934448        -0.011597         -0.000352
