14

N    -0.000225252    -0.000197216    -2.31108
C    -0.000220542    -0.000240165    -0.939765
C    -0.000184246    -1.24825    -0.250064
C    -0.0002521    1.24773    -0.249985
C    -0.000179745    -1.23382    1.17254
C    -0.000246817    1.23321    1.17262
C    -0.000210936    -0.000327687    1.8547
H    -0.000203359    -0.870143    -2.82383
H    -0.000250671    0.869781    -2.82377
H    -0.00016111    -2.16855    -0.798181
H    -0.000279006    2.16806    -0.798045
H    -0.000152831    -2.15441    1.7208
H    -0.000269962    2.15376    1.72093
H    -0.00020724    -0.000361343    2.92926
