14

N    0    -4.65912e-07    -2.31384
C    0    -1.27939e-06    -0.941157
C    0    -1.24848    -0.249927
C    0    1.24848    -0.249925
C    0    -1.23336    1.17384
C    0    1.23336    1.17384
C    0    -2.93771e-06    1.85713
H    0    -0.869809    -2.8278
H    0    0.869809    -2.8278
H    0    -2.16923    -0.798235
H    0    2.16923    -0.798232
H    0    -2.15325    1.72367
H    0    2.15324    1.72368
H    0    -3.57496e-06    2.93242
