14

N    -0.0935271    -2.31196    0.0367833
C    -0.0401941    -0.958278    0.0275938
C    -1.24484    -0.320926    0.046528
C    1.19413    -0.106305    -0.000902322
C    -1.26389    1.18612    0.0377806
C    1.16252    1.11599    -0.00769111
C    0.0456769    1.84373    0.00903597
H    -5.01526    -5.74177    0.150605
H    0.866637    -2.70095    0.0209726
H    -2.18779    -0.859697    0.0676199
H    2.09237    -0.66962    -0.0144883
H    -2.16408    1.75554    0.0513665
H    2.0987    1.66073    -0.0286911
H    0.0715519    2.91688    0.0020611
