14

N    -4.11938e-05    -3.91536e-05    -2.32462
C    -3.94141e-05    -3.7323e-05    -0.939481
C    -3.17246e-05    -1.23525    -0.208886
C    -4.52238e-05    1.23518    -0.20889
C    -3.00253e-05    -1.22608    1.15183
C    -4.34263e-05    1.22601    1.15183
C    -3.5848e-05    -3.36532e-05    1.83712
H    -0.883627    -4.46707e-05    -2.84584
H    0.883543    -3.5014e-05    -2.84584
H    -2.74627e-05    -2.14635    -0.76902
H    -5.09209e-05    2.14627    -0.769026
H    -2.4302e-05    -2.14214    1.70676
H    -4.77158e-05    2.14207    1.70675
H    -3.44748e-05    -3.22344e-05    2.9106
