14

N    -2.25294    -0.48888    -0.584172
C    -0.93859    -0.0888955    0.0206295
C    0.0544982    0.15512    -1.09449
C    -0.326706    -0.194648    1.23494
C    1.33349    -0.309745    -0.93898
C    0.792864    0.726592    1.27147
C    1.82134    0.455859    0.224849
H    -3.03598    0.344342    -1.49869
H    -2.20622    -1.93495    0.372391
H    -0.575317    -0.145035    -1.9404
H    -0.719539    -0.850636    1.82825
H    1.7355    -1.21498    -1.37793
H    0.502095    1.5267    2.01079
H    2.79159    0.500983    0.162711
