14

N    -2.37098    -0.290357    0.263883
C    -0.91086    0.183077    0.0868301
C    -0.317814    0.0735621    -1.18115
C    -0.203345    0.129694    1.24349
C    1.1038    -0.106305    -1.26331
C    1.22212    0.0124867    1.03608
C    1.88314    -0.0840566    -0.0841178
H    -3.2347    1.91218    -1.41304
H    -1.70526    0.378551    -0.16589
H    -0.942943    -0.194198    -2.08211
H    -0.778398    0.2171    2.34749
H    1.40657    -0.481554    -2.22284
H    2.0467    0.0863862    1.80243
H    2.86193    -0.0702834    -0.00235303
