 14

      N        -2.343542         0.139125          0.001749
      C        -0.944344        -0.001610          0.001139
      C        -0.258130         0.014338         -1.245672
      C        -0.257178         0.013000          1.247443
      C         1.179133         0.002975         -1.237956
      C         1.180078         0.001646          1.238617
      C         1.860532        -0.008072          0.000065
      H        -2.753037        -0.383517         -0.765747
      H        -2.752452        -0.384341          0.768997
      H        -0.807424         0.042706         -2.164599
      H        -0.805771         0.040382          2.166819
      H         1.728537         0.002059         -2.157037
      H         1.730184        -0.000255          2.157277
      H         2.934584        -0.014492         -0.000348
