14

N    -4.12041e-05    -4.11385e-05    -2.27261
C    -4.26018e-05    -4.31666e-05    -0.94327
C    -3.36961e-05    -1.24007    -0.218314
C    -5.30155e-05    1.23999    -0.21831
C    -3.5265e-05    -1.21947    1.14733
C    -5.42709e-05    1.21938    1.14734
C    -4.54797e-05    -4.7416e-05    1.84315
H    -3.38371e-05    -0.873047    -2.8157
H    -4.74383e-05    0.872966    -2.8157
H    -2.59732e-05    -2.15954    -0.765652
H    -5.96233e-05    2.15945    -0.765646
H    -2.86424e-05    -2.14224    1.6945
H    -6.2037e-05    2.14215    1.6945
H    -4.65748e-05    -4.90529e-05    2.91651
