14

N    -0.00203205    -0.00231256    -2.32537
C    -0.00195956    -0.0022824    -0.93882
C    -0.00149422    -1.23628    -0.211828
C    -0.0023489    1.23175    -0.211881
C    -0.00142547    -1.22935    1.14869
C    -0.00227536    1.22487    1.14863
C    -0.00181458    -0.00222207    1.83395
H    -0.881711    -0.00262831    -2.83646
H    0.877594    -0.00201906    -2.83655
H    -0.00120845    -2.14627    -0.773183
H    -0.00269337    2.14172    -0.773276
H    -0.00107911    -2.14584    1.70298
H    -0.00256376    2.14139    1.70288
H    -0.00175844    -0.00219871    2.90753
