14

N    -1.118e-09    -8.50526e-10    -2.32263
C    -1.53963e-10    -7.82463e-10    -0.935304
C    4.35591e-10    -1.23254    -0.205846
C    2.70561e-10    1.23254    -0.205846
C    -9.27772e-10    -1.22532    1.15618
C    -1.41742e-09    1.22532    1.15618
C    -8.22158e-10    -6.46127e-10    1.84294
H    -0.867437    -9.3536e-10    -2.86814
H    0.867437    -8.19214e-10    -2.86814
H    4.13977e-10    -2.13907    -0.770251
H    -9.97289e-11    2.13907    -0.770251
H    -2.08109e-09    -2.13906    1.7139
H    -3.19388e-09    2.13906    1.7139
H    -2.74111e-10    -5.93422e-10    2.91689
