14

N    -1.06883e-06    -1.47144e-06    -2.33327
C    -1.16603e-06    -1.61429e-06    -0.94147
C    -8.90056e-07    -1.23248    -0.208526
C    -1.5304e-06    1.23247    -0.208526
C    -9.79087e-07    -1.22361    1.15152
C    -1.61513e-06    1.22361    1.15152
C    -1.33924e-06    -1.89543e-06    1.8398
H    -0.896403    -1.65126e-06    -2.84981
H    0.896401    -1.18512e-06    -2.84981
H    -6.20488e-07    -2.14559    -0.759465
H    -1.73651e-06    2.14558    -0.759464
H    -7.77302e-07    -2.13997    1.70299
H    -1.8877e-06    2.13996    1.70299
H    -1.4036e-06    -2.00374e-06    2.91509
