14

N    0    2.07151e-11    -2.32121
C    0    3.70184e-11    -0.932083
C    0    -1.19957    -0.211793
C    0    1.19957    -0.211793
C    0    -1.19006    1.17338
C    0    1.19006    1.17338
C    0    7.00169e-11    1.87954
H    0    -0.867213    -2.83072
H    0    0.867213    -2.83072
H    0    -2.13438    -0.737586
H    0    2.13438    -0.737586
H    0    -2.12523    1.70021
H    0    2.12523    1.70021
H    0    8.26009e-11    2.95174
