14

N    -2.36048    0.0964057    -6.56681e-09
C    -0.937261    0.00688305    -4.49396e-09
C    -0.228159    0.00984094    -1.20125
C    -0.228159    0.00984094    1.20125
C    1.15628    0.00142599    -1.1949
C    1.15628    0.00142599    1.1949
C    1.85712    -0.00511584    5.18228e-10
H    -2.73024    -0.400677    -0.821266
H    -2.73024    -0.400676    0.821266
H    -0.76022    0.01303    -2.13392
H    -0.76022    0.013031    2.13392
H    1.68824    -0.00347698    -2.12802
H    1.68824    -0.00347597    2.12803
H    2.92999    -0.0181107    2.66397e-09
