14

N    -0.0258864    -2.28441    -1.35886e-12
C    0.00485349    -0.958715    -2.53554e-13
C    -1.23522    -0.220758    6.44655e-13
C    1.2384    -0.212742    5.02156e-13
C    -1.21296    1.13963    -9.00412e-13
C    1.21615    1.15242    -1.21157e-12
C    0.00225445    1.84347    -3.41075e-13
H    -1.1532    -2.95299    -1.34767e-12
H    0.880794    -2.77959    -9.32211e-13
H    -2.15056    -0.771109    2.03713e-13
H    2.1628    -0.754357    -1.76315e-13
H    -2.1361    1.68687    -2.49364e-12
H    2.13704    1.70222    -3.15323e-12
H    -0.00132522    2.91593    7.46956e-13
