14

N    -0.0315765    -2.28293    0
C    0.0138486    -0.955471    0
C    -1.22451    -0.223383    0
C    1.2458    -0.208706    0
C    -1.21096    1.14263    0
C    1.22001    1.15769    0
C    0.00074817    1.85034    0
H    -1.16954    -2.97751    0
H    0.855062    -2.79677    0
H    -2.13966    -0.773814    0
H    2.17469    -0.740853    0
H    -2.1398    1.68076    0
H    2.14198    1.70859    0
H    -0.00904854    2.92528    0
