14

N    -2.3197    0.0482945    6.98827e-07
C    -0.937066    -0.0328129    4.20618e-07
C    -0.247579    -0.0333039    -1.24772
C    -0.247579    -0.0333045    1.24772
C    1.17222    -0.0037158    -1.23598
C    1.17222    -0.00371636    1.23598
C    1.85511    0.0155252    -9.31312e-08
H    -2.77591    -0.234416    -0.860997
H    -2.77591    -0.234416    0.860998
H    -0.796037    -0.0232647    -2.16753
H    -0.796036    -0.0232656    2.16753
H    1.71584    0.0110826    -2.15985
H    1.71584    0.0110816    2.15985
H    2.92829    0.0529729    -2.86315e-07
