14

N    -0.07079222623778074    -2.326709178158206    0.21526028174035478
C    -0.009805674836887334    -0.9493826368783035    0.10961549733673315
C    -1.2224481254362891    -0.22289644644219792    0.12725242334507553
C    1.203701842912011    -0.2335085714692182    0.011367271486808552
C    -1.2069299085509941    1.147034377675769    0.044615718905813374
C    1.1969133036788786    1.140346784286892    -0.06130198864298896
C    -0.002734020505542365    1.838314879411391    -0.04907118991236022
H    -1.2498111274458463    -3.0048882788201046    -0.6273473011351192
H    0.8808608507445059    -2.7273779398421425    0.2104435679125619
H    -2.1430073052949363    -0.7638052964875536    0.21134490486791516
H    2.1313778794191363    -0.773259867538506    -0.00917709698178026
H    -2.1319211486164935    1.6923262808267157    0.0591433689748916
H    2.1251812196017155    1.675680927071286    -0.13157707116218645
H    -0.0017155395915877702    2.9100110282060365    -0.11056838673571896
