 14

      N        -0.038466        -2.279528          0.000000
      C         0.007271        -0.962320          0.000000
      C        -1.214408        -0.227477          0.000000
      C         1.226532        -0.220084          0.000000
      C        -1.205235         1.144518          0.000000
      C         1.211999         1.152210          0.000000
      C         0.001247         1.849061          0.000000
      H        -1.544783        -3.293517          0.000000
      H         0.856621        -2.736151          0.000000
      H        -2.135348        -0.779076          0.000000
      H         2.159666        -0.755423          0.000000
      H        -2.135587         1.683685          0.000000
      H         2.139633         1.696258          0.000000
      H        -0.001424         2.923448          0.000000
