14

N    -2.35243    0.0893396    2.06263e-09
C    -0.935567    -0.0150595    1.06106e-09
C    -0.225224    -0.0132802    -1.20156
C    -0.225224    -0.0132802    1.20156
C    1.15963    -0.000867966    -1.19483
C    1.15963    -0.000867966    1.19483
C    1.86117    0.00761194    -9.18794e-10
H    -2.75177    -0.360693    -0.825552
H    -2.75177    -0.360692    0.825552
H    -0.757    -0.0168303    -2.13415
H    -0.757    -0.0168293    2.13415
H    1.69118    0.00147111    -2.12824
H    1.69117    0.0014721    2.12824
H    2.93436    0.018857    -1.64952e-09
