 14

      N        -0.036024        -2.284828          0.000000
      C         0.027345        -0.946716         -0.000000
      C        -1.205881        -0.213617         -0.000000
      C         1.242676        -0.187291         -0.000000
      C        -1.203213         1.153491         -0.000000
      C         1.218349         1.180359          0.000000
      C         0.001061         1.866143          0.000000
      H        -1.842322        -3.540727          0.000000
      H         0.916874        -2.671996          0.000000
      H        -2.121611        -0.769178         -0.000000
      H         2.178508        -0.714371         -0.000000
      H        -2.133376         1.690196         -0.000000
      H         2.138562         1.733829          0.000000
      H        -0.010290         2.939160          0.000000
