14

N    -5.55208e-06    -2.63847e-06    -2.31492
C    -5.64662e-06    -7.26567e-06    -0.941527
C    -4.91e-06    -1.24779    -0.249832
C    -6.46742e-06    1.24777    -0.249824
C    -5.00538e-06    -1.23267    1.17411
C    -6.54114e-06    1.23264    1.17412
C    -5.81345e-06    -1.66925e-05    1.85772
H    -4.96305e-06    -0.870556    -2.83013
H    -6.06865e-06    0.870554    -2.83013
H    -4.3069e-06    -2.16809    -0.797844
H    -7.01091e-06    2.16807    -0.797829
H    -4.46718e-06    -2.15119    1.72536
H    -7.14536e-06    2.15115    1.72538
H    -5.87385e-06    -2.03132e-05    2.93297
