14

N    -0.00014385    -0.000191168    -2.3156
C    -0.000146822    -0.000197371    -0.941838
C    -0.0001275    -1.24808    -0.249779
C    -0.000169133    1.24768    -0.249768
C    -0.000130824    -1.23294    1.17428
C    -0.000171943    1.23253    1.17429
C    -0.00015285    -0.000210009    1.8578
H    -0.000128231    -0.869718    -2.83169
H    -0.000157235    0.86934    -2.83168
H    -0.000110972    -2.16866    -0.797345
H    -0.000183312    2.16826    -0.797325
H    -0.0001167    -2.15141    1.72583
H    -0.000188451    2.15099    1.72585
H    -0.000155157    -0.000214862    2.93306
