14

N    0    -3.93914e-16    -2.26061
C    0    3.20663e-17    -0.942918
C    0    -1.24202    -0.217479
C    0    1.24202    -0.217479
C    0    -1.21872    1.13959
C    0    1.21872    1.13959
C    0    3.96311e-16    1.83181
H    0    -0.85981    -2.80072
H    0    0.85981    -2.80072
H    0    -2.16568    -0.758978
H    0    2.16568    -0.758978
H    0    -2.13896    1.68602
H    0    2.13896    1.68602
H    0    5.20555e-16    2.90326
