 14

      N        -0.001603         0.000106         -2.324398
      C        -0.002741        -0.001379         -0.934551
      C         0.100141        -1.229986         -0.213324
      C        -0.106807         1.225685         -0.210870
      C         0.110831        -1.222797          1.151261
      C        -0.119731         1.215580          1.153677
      C        -0.005012        -0.004341          1.838392
      H        -0.867501        -0.135117         -2.853070
      H         0.865159         0.136458         -2.851361
      H         0.178535        -2.134443         -0.777381
      H        -0.184278         2.131346         -0.773120
      H         0.201448        -2.135523          1.704635
      H        -0.211256         2.127122          1.708851
      H        -0.005891        -0.005488          2.912050
