 14

      N        -2.320885        -0.011612         -0.006768
      C        -0.939564        -0.049607         -0.006247
      C        -0.242023        -0.026762         -1.250361
      C        -0.243004        -0.028336          1.238444
      C         1.171120        -0.002410         -1.234780
      C         1.170151        -0.003966          1.224009
      C         1.859565         0.006263         -0.005108
      H        -2.778738        -0.272312         -0.878929
      H        -2.779425        -0.273415          0.864702
      H        -0.790001        -0.024253         -2.169771
      H        -0.791707        -0.026991          2.157424
      H         1.719281         0.009067         -2.154865
      H         1.717586         0.006347          2.144539
      H         2.932916         0.025792         -0.004673
