 14

      N        -2.361652         0.121859         -0.007686
      C        -0.931020        -0.009615         -0.010564
      C        -0.220542         0.007819         -1.209556
      C        -0.230853        -0.019895          1.192730
      C         1.160011         0.005130         -1.194798
      C         1.153677        -0.007044          1.193130
      C         1.855180         0.001144          0.003468
      H        -2.830144        -0.766785         -0.982789
      H        -2.729064        -0.364753          0.828480
      H        -0.751509         0.025790         -2.141223
      H        -0.766080        -0.037295          2.123231
      H         1.697600         0.011709         -2.124578
      H         1.681300        -0.013412          2.128544
      H         2.928638         0.001973          0.006514
