 14

      N         0.000000         0.000000         -2.352317
      C         0.000000        -0.000000         -1.007720
      C         0.000000        -1.187950         -0.251974
      C         0.000000         1.187950         -0.251974
      C         0.000000        -1.171447          1.180127
      C         0.000000         1.171447          1.180127
      C         0.000000         0.000000          1.901053
      H         0.000000        -0.867458         -2.880276
      H         0.000000         0.867458         -2.880276
      H         0.000000        -2.133724         -0.751226
      H         0.000000         2.133724         -0.751226
      H         0.000000        -2.119062          1.682511
      H         0.000000         2.119062          1.682511
      H         0.000000        -0.000000          2.970849
