14

N    0    -8.07318e-05    -2.35021
C    0    -4.88707e-05    -1.00668
C    0    -1.18897    -0.251828
C    0    1.18891    -0.251885
C    0    -1.1722    1.18002
C    0    1.17221    1.17996
C    0    2.00555e-05    1.89982
H    0    -0.865522    -2.88073
H    0    0.865336    -2.88077
H    0    -2.13432    -0.752128
H    0    2.13424    -0.752229
H    0    -2.11944    1.68325
H    0    2.11947    1.68315
H    0    4.54193e-05    2.96937
