 14

      N        -2.338402         0.051384         -0.009110
      C        -0.938416         0.000983          0.002822
      C        -0.226001         0.005726         -1.199467
      C        -0.224816         0.000086          1.202116
      C         1.157238         0.003088         -1.192820
      C         1.159298        -0.001821          1.193685
      C         1.860981        -0.001576          0.000164
      H        -2.693933        -0.238579         -0.664487
      H        -2.753256        -0.263731          0.859192
      H        -0.757208         0.015884         -2.132080
      H        -0.754350         0.005305          2.135895
      H         1.686707         0.004041         -2.127087
      H         1.689495        -0.004676          2.127481
      H         2.933990        -0.003780         -0.000806
