14

N    -0.000202555    -0.000897906    -2.31729
C    -5.73256e-05    -0.000585753    -0.933208
C    0.000104368    -1.23361    -0.20988
C    -6.72831e-05    1.23276    -0.210436
C    0.000246611    -1.226    1.15048
C    7.59729e-05    1.22576    1.14993
C    0.00023313    3.85106e-05    1.83478
H    -0.866445    -0.00107777    -2.84749
H    0.865928    -0.000957239    -2.84767
H    0.000108803    -2.14376    -0.770971
H    -0.00018952    2.14266    -0.771938
H    0.000368623    -2.14207    1.70577
H    7.04516e-05    2.14209    1.7048
H    0.000345917    0.00028091    2.90958
