 14

      N        -2.310676        -0.058189         -0.006793
      C        -0.936979        -0.062570         -0.006254
      C        -0.235927        -0.037376         -1.249587
      C        -0.236908        -0.038949          1.237662
      C         1.168975        -0.001407         -1.231806
      C         1.168008        -0.002959          1.221034
      C         1.859938         0.013963         -0.005103
      H        -2.792926        -0.230744         -0.889242
      H        -2.793622        -0.231860          0.875056
      H        -0.783490        -0.043506         -2.168982
      H        -0.785196        -0.046243          2.156616
      H         1.716425         0.014127         -2.152364
      H         1.714732         0.011410          2.142043
      H         2.932918         0.042107         -0.004662
