14

N    -2.36977    -0.065943    -0.262793
C    -0.924345    -0.0424522    -0.106747
C    -0.21186    0.112485    -1.23288
C    -0.228608    -0.171996    1.15036
C    1.16706    0.150058    -1.21125
C    1.16061    -0.133256    1.1647
C    1.85617    0.0215842    0.0352512
H    -2.68034    -0.922532    0.224838
H    -2.72563    0.63294    0.410193
H    -0.728462    0.207189    -2.15384
H    -0.787884    -0.297531    2.06718
H    1.73437    0.274781    -2.1193
H    1.66217    -0.229959    2.09877
H    2.92776    0.053148    0.0322104
