14

N    -2.32108    -0.552435    -0.459763
C    -1.01762    -0.177263    -0.0146648
C    0.179072    0.45776    -0.800962
C    0.309892    -0.360572    0.60373
C    1.07108    -0.558121    -0.548682
C    0.495989    1.09863    0.788497
C    1.68228    0.283336    0.579735
H    -2.99842    0.825879    -1.00775
H    -2.38949    -2.13897    -0.0752164
H    0.243984    1.08733    -1.78417
H    0.220238    -1.20225    1.06999
H    1.53106    -1.55776    -0.743772
H    0.224633    2.01224    1.13499
H    2.79989    0.0891483    0.553246
