14

N    -2.38581    -0.0711574    -0.223182
C    -0.926007    -0.0436048    -0.0976872
C    -0.184402    0.116537    -1.26032
C    -0.255539    -0.168982    1.11824
C    1.20031    0.150902    -1.21034
C    1.12574    -0.13408    1.16288
C    1.85705    0.0260059    -0.00179909
H    -2.67014    -0.930609    0.283291
H    -2.71551    0.627577    0.468976
H    -0.700368    0.212758    -2.19383
H    -0.818093    -0.293313    2.02412
H    1.76327    0.275191    -2.11576
H    1.63114    -0.231629    2.10495
H    2.92964    0.0527326    0.0360139
