14

N    -1.41041e-05    -1.59999e-05    -2.30901
C    -1.41937e-05    -1.60167e-05    -0.938273
C    -1.2224e-05    -1.24635    -0.248935
C    -1.62403e-05    1.24632    -0.248935
C    -1.23164e-05    -1.23238    1.1726
C    -1.62832e-05    1.23234    1.1726
C    -1.43331e-05    -1.60382e-05    1.8543
H    -1.26768e-05    -0.864977    -2.82636
H    -1.54609e-05    0.864945    -2.82636
H    -1.07187e-05    -2.16593    -0.795776
H    -1.76957e-05    2.1659    -0.795776
H    -1.08607e-05    -2.15237    1.71978
H    -1.7785e-05    2.15233    1.71978
H    -1.43856e-05    -1.60455e-05    2.92771
