14

N    0    -4.01498e-16    -2.27406
C    0    -3.0501e-16    -0.943284
C    0    -1.23791    -0.217634
C    0    1.23791    -0.217634
C    0    -1.21739    1.14644
C    0    1.21739    1.14644
C    0    1.39147e-16    1.84234
H    0    -0.875902    -2.81363
H    0    0.875902    -2.81363
H    0    -2.15785    -0.762328
H    0    2.15785    -0.762328
H    0    -2.14098    1.69108
H    0    2.14098    1.69108
H    0    2.88671e-16    2.91554
