 14

      N        -2.375569         0.051987         -0.159119
      C        -0.927975        -0.001762         -0.071591
      C        -0.192618         0.112972         -1.247140
      C        -0.248100        -0.100491          1.139965
      C         1.190446         0.103705         -1.210457
      C         1.136547        -0.086368          1.170873
      C         1.859459         0.010303         -0.002916
      H        -2.722673        -0.922752         -0.222706
      H        -2.706180         0.351576          0.767352
      H        -0.712125         0.217475         -2.178816
      H        -0.801567        -0.197251          2.054638
      H         1.746700         0.187631         -2.124847
      H         1.647477        -0.160108          2.112504
      H         2.932737         0.015007          0.022088
