14

N    0    -4.70343e-07    -2.31463
C    0    -3.5837e-07    -0.941071
C    0    -1.24745    -0.249964
C    0    1.24745    -0.249964
C    0    -1.23233    1.17367
C    0    1.23233    1.17367
C    0    -1.3024e-07    1.85737
H    0    -0.87108    -2.829
H    0    0.871079    -2.829
H    0    -2.16804    -0.798536
H    0    2.16804    -0.798537
H    0    -2.1512    1.72489
H    0    2.1512    1.72489
H    0    -4.24971e-08    2.9337
