 14

      N        -2.294318        -0.121950         -0.006773
      C        -0.932648        -0.080211         -0.006221
      C        -0.226641        -0.051785         -1.248415
      C        -0.227599        -0.053451          1.236554
      C         1.166573        -0.000153         -1.227605
      C         1.165631        -0.001792          1.216887
      C         1.860952         0.024437         -0.005074
      H        -2.817504        -0.175479         -0.883351
      H        -2.818179        -0.176654          0.869328
      H        -0.773457        -0.069823         -2.167755
      H        -0.775123        -0.072723          2.155447
      H         1.712976         0.020918         -2.148830
      H         1.711325         0.018042          2.138560
      H         2.933306         0.064337         -0.004634
