14

N    0    9.64418e-16    -2.2706
C    0    5.38758e-16    -0.940495
C    0    -1.23773    -0.217508
C    0    1.23773    -0.217508
C    0    -1.21706    1.14511
C    0    1.21706    1.14511
C    0    -3.42286e-16    1.83916
H    0    -0.874658    -2.81023
H    0    0.874658    -2.81023
H    0    -2.15623    -0.764445
H    0    2.15623    -0.764445
H    0    -2.139    1.69148
H    0    2.139    1.69148
H    0    -6.46708e-16    2.91154
