14

N    -2.33106    0.0636778    -0.000102199
C    -0.943982    -0.00686733    -9.23236e-05
C    -0.247487    0.00510359    -1.24505
C    -0.247494    0.00531847    1.24487
C    1.17185    0.00231998    -1.23187
C    1.17184    0.00253259    1.23169
C    1.85883    -0.00156323    -8.51284e-05
H    -2.77672    -0.292175    -0.843448
H    -2.77673    -0.292029    0.843302
H    -0.795389    0.0106102    -2.1649
H    -0.795401    0.0109839    2.16471
H    1.72117    0.00462285    -2.1514
H    1.72116    0.00499417    2.15123
H    2.93336    0.00129152    -8.24408e-05
