14

N    -0.059729490942576756    -2.3071856983598695    0.0
C    0.01762002938008135    -0.9582103816507083    0.0
C    -1.2111824559734743    -0.22721055834109158    0.0
C    1.2347765732371656    -0.206774655324888    0.0
C    -1.2057195109389054    1.1400471218173758    0.0
C    1.2173311247098746    1.156919778350859    0.0
C    0.0018564383150697283    1.8457708063560871    0.0
H    -4.152146233866381    -6.6102160020826295    0.8579367300360154
H    0.894297750168292    -2.7052774569995104    0.0
H    -2.129328429009111    -0.7799914355533927    0.0
H    2.167573790970651    -0.7397963519185039    0.0
H    -2.1331316044380753    1.6811864973299833    0.0
H    2.1373006635724012    1.7108757676389994    0.0
H    -0.005105559915171314    2.9191100821331366    0.0
