14

N    0    2.15261e-10    -2.34937
C    0    2.08158e-10    -1.00573
C    0    -1.18905    -0.253444
C    0    1.18905    -0.253444
C    0    -1.17129    1.17868
C    0    1.17129    1.17868
C    0    1.9281e-10    1.89764
H    0    -0.863729    -2.87436
H    0    0.863729    -2.87436
H    0    -2.13245    -0.758292
H    0    2.13245    -0.758292
H    0    -2.11663    1.68751
H    0    2.11663    1.68751
H    0    1.87155e-10    2.96748
