 14

      N        -0.000506         0.001545         -2.323218
      C        -0.001665        -0.000240         -0.925133
      C         0.087813        -1.226936         -0.215895
      C        -0.092322         1.224642         -0.212914
      C         0.110859        -1.216852          1.153281
      C        -0.117638         1.211062          1.156192
      C        -0.003958        -0.003770          1.840086
      H        -0.860957        -0.186805         -2.856223
      H         0.860828         0.191254         -2.854313
      H         0.158657        -2.134928         -0.775305
      H        -0.162240         2.134059         -0.770120
      H         0.206050        -2.131664          1.702732
      H        -0.213742         2.124468          1.707818
      H        -0.004848        -0.005141          2.913714
