14

N    -2.3504    0.00772711    0.00314876
C    -0.933539    0.00868825    0.0505641
C    -0.183472    -0.0953833    -1.19297
C    -0.248465    0.0185991    1.27518
C    1.14441    -0.0295359    -1.31833
C    1.1768    0.0298193    1.2267
C    1.86991    0.0336994    -0.0101923
H    -2.8016    -0.110275    -1.00732
H    -2.9855    0.614911    0.583501
H    -0.804698    -0.0918683    -2.07874
H    -0.931943    -0.205595    2.25501
H    1.63994    0.0770411    -2.13035
H    1.70199    0.0742239    2.1576
H    2.971    0.236254    -0.192137