14

N    -2.22864    -0.0232187    -0.0410551
C    -0.953048    0.0469001    0.0444429
C    -0.271124    -0.0774365    -1.22764
C    -0.156849    0.193285    1.27348
C    1.11159    -0.0433933    -1.2397
C    1.14917    -0.00632767    1.24678
C    1.83337    -0.0518331    -0.0453448
H    -3.19305    -0.529278    -1.22688
H    -2.6332    0.00467829    0.821712
H    -0.966907    -0.210188    -1.96965
H    -0.895114    0.150571    2.21206
H    1.49329    0.379131    -2.01071
H    1.75566    -0.0309372    2.21852
H    2.87653    0.125886    -0.0939738
