 14

      N        -0.038408        -2.288624          0.000000
      C         0.019227        -0.968035          0.000000
      C        -1.222685        -0.228142          0.000000
      C         1.246934        -0.208025          0.000000
      C        -1.209951         1.136163          0.000000
      C         1.217222         1.155315          0.000000
      C        -0.002576         1.844429          0.000000
      H        -1.263622        -2.966009          0.000000
      H         0.875859        -2.763124          0.000000
      H        -2.135325        -0.784583          0.000000
      H         2.178613        -0.738717          0.000000
      H        -2.137859         1.676172          0.000000
      H         2.136526         1.709697          0.000000
      H        -0.009983         2.917150          0.000000
