14

N    -0.0424208    -2.27662    0
C    0.0302578    -0.953244    0
C    -1.20978    -0.229512    0
C    1.2603    -0.200771    0
C    -1.20866    1.13666    0
C    1.22249    1.16421    0
C    -0.00319271    1.84888    0
H    -1.19342    -2.95357    0
H    0.818143    -2.81958    0
H    -2.1171    -0.798064    0
H    2.18976    -0.729658    0
H    -2.14166    1.67042    0
H    2.139    1.72368    0
H    -0.0166834    2.92303    0
