14

N    -3.94608e-05    -1.33392e-05    -2.30595
C    -4.0025e-05    -1.23918e-05    -0.937206
C    -3.36819e-05    -1.25183    -0.251245
C    -4.6902e-05    1.25181    -0.251247
C    -3.42999e-05    -1.23711    1.17363
C    -4.73571e-05    1.23708    1.17363
C    -4.10787e-05    -1.04437e-05    1.85274
H    -3.4666e-05    -0.867332    -2.82109
H    -4.38255e-05    0.867305    -2.82109
H    -2.86382e-05    -2.17015    -0.804005
H    -5.15511e-05    2.17013    -0.804008
H    -2.96543e-05    -2.15784    1.72296
H    -5.24243e-05    2.15782    1.72296
H    -4.14671e-05    -9.69288e-06    2.92691
