14

N    -2.38632    -0.0715123    -0.220099
C    -0.926035    -0.0433932    -0.0992624
C    -0.182012    0.116804    -1.26183
C    -0.259    -0.168794    1.11606
C    1.2022    0.151272    -1.21285
C    1.1221    -0.133784    1.15972
C    1.85591    0.0260784    -0.00252782
H    -2.66574    -0.930213    0.291467
H    -2.71104    0.625587    0.476861
H    -0.694348    0.213154    -2.19556
H    -0.824535    -0.293153    2.02148
H    1.76543    0.275651    -2.11901
H    1.6266    -0.231273    2.1011
H    2.92801    0.0520915    0.0411382
