14

N    -0.000151154    -0.000152135    -2.35179
C    -0.00015435    -0.000129424    -1.00733
C    -0.000128802    -1.19184    -0.253301
C    -0.000183472    1.1916    -0.253342
C    -0.000132585    -1.1749    1.17996
C    -0.00018649    1.17472    1.17992
C    -0.000161239    -8.0351e-05    1.89761
H    -0.000129996    -0.868048    -2.87728
H    -0.000169813    0.867726    -2.87731
H    -0.000105875    -2.13986    -0.750336
H    -0.000204046    2.13961    -0.750408
H    -0.000111987    -2.12463    1.68311
H    -0.000209477    2.12446    1.68304
H    -0.000163772    -6.22934e-05    2.96654
