14

N    -6.99461e-12    -4.65386e-12    -2.31992
C    -1.98845e-12    -4.62966e-12    -0.92956
C    1.42246e-12    -1.2253    -0.200074
C    8.6398e-13    1.2253    -0.200074
C    -4.05501e-12    -1.2172    1.16699
C    -6.1687e-12    1.2172    1.16699
C    -2.88891e-12    -4.43805e-12    1.84969
H    -0.843318    -4.8509e-12    -2.91741
H    0.843318    -4.46248e-12    -2.91741
H    5.0686e-13    -2.14613    -0.737835
H    -1.63098e-12    2.14613    -0.737835
H    -9.07217e-12    -2.14332    1.70568
H    -1.39903e-11    2.14332    1.70568
H    6.59815e-13    -4.3326e-12    2.91866
