14

N    -2.3815    -0.0721184    -0.213985
C    -0.926047    -0.0449266    -0.0865592
C    -0.171829    0.11697    -1.26084
C    -0.26681    -0.168762    1.11366
C    1.20498    0.151231    -1.21196
C    1.12231    -0.133823    1.15988
C    1.85967    0.0269481    -0.00908271
H    -2.67442    -0.933936    0.282038
H    -2.71998    0.630874    0.468514
H    -0.695696    0.21197    -2.18602
H    -0.824609    -0.293784    2.0265
H    1.7634    0.276026    -2.12274
H    1.62974    -0.230935    2.09876
H    2.93181    0.0525245    0.0382502
