14

N    -0.060253863221825396    -2.3233292386604405    0.18608696979297532
C    -0.0015857641730242782    -0.9530098555937354    0.09513131388354469
C    -1.219096449293219    -0.22671336460326125    0.10943274598784675
C    1.2124796703983565    -0.2283512156888985    0.010540204552640231
C    -1.2064930198478216    1.1429084411921469    0.037849891958461224
C    1.2006593544282063    1.1444675983351378    -0.052411075987229425
C    -0.0028958746464730033    1.8390465039442705    -0.042591367370777976
H    -1.3068810954502654    -3.011914778460265    -0.5431389880131549
H    0.8898547412850007    -2.725821587338355    0.1829644644235037
H    -2.138208207776408    -0.7714471815950185    0.18158594192056593
H    2.1420055040465873    -0.7649724126957754    -0.006529316485874547
H    -2.132958716952351    1.6857301980524702    0.049718939857724
H    2.127061312137996    1.6841974309768568    -0.11273605004230618
H    -0.004817586970186537    2.9110955186849545    -0.09590367976969104
