14

N    -2.32473    0.0516013    -0.000630125
C    -0.941059    -0.0264866    -0.000675542
C    -0.247573    -0.0128846    -1.24598
C    -0.247534    -0.0136265    1.24462
C    1.17214    -0.00123588    -1.23306
C    1.17218    -0.00197006    1.23166
C    1.85747    0.00349466    -0.000711425
H    -2.77889    -0.27188    -0.849646
H    -2.77886    -0.272386    0.848207
H    -0.795492    -0.00261111    -2.16551
H    -0.795422    -0.00390081    2.16416
H    1.71946    0.00956672    -2.15353
H    1.71953    0.00828418    2.15212
H    2.93112    0.0193117    -0.000723906
