14

N    -1.60604    -0.765533    0.0212888
C    -0.916391    0.471782    -0.06106
C    -0.133885    0.647228    -1.19965
C    -0.0678919    0.837028    1.15389
C    0.797328    -0.26044    -1.2596
C    0.845463    -0.0750831    1.24972
C    1.33243    -0.66912    0.0319977
H    -1.48484    -1.67001    0.17531
H    -2.33477    0.492605    0.55346
H    -0.608292    0.978737    -2.11497
H    -0.588664    1.34609    1.94472
H    1.38828    -0.273511    -2.2376
H    1.3224    -0.213342    2.19036
H    2.28552    -1.05631    0.201449
