 14

      N         0.012099        -2.255882          0.000000
      C         0.066746        -0.911531         -0.000000
      C        -1.172457        -0.194076          0.000000
      C         1.276383        -0.139660         -0.000000
      C        -1.184238         1.171827         -0.000000
      C         1.238697         1.223853          0.000000
      C         0.014700         1.896106          0.000000
      H        -2.210717        -3.958552          0.000000
      H         0.970769        -2.638368         -0.000000
      H        -2.082862        -0.759139         -0.000000
      H         2.216738        -0.658951         -0.000000
      H        -2.118996         1.700411         -0.000000
      H         2.151723         1.789315          0.000000
      H        -0.007928         2.969099          0.000000
