14

N    -4.30993e-07    1.83752e-05    -2.35519
C    -4.35065e-07    6.476e-06    -1.01056
C    -3.65342e-07    -1.18658    -0.251387
C    -5.07717e-07    1.18658    -0.251366
C    -3.67336e-07    -1.17052    1.18268
C    -5.06538e-07    1.17049    1.1827
C    -4.39055e-07    -1.93352e-05    1.90627
H    -3.84755e-07    -0.866183    -2.88766
H    -4.73733e-07    0.86623    -2.88765
H    -3.07725e-07    -2.1341    -0.748457
H    -5.62621e-07    2.1341    -0.748419
H    -3.10065e-07    -2.12084    1.68141
H    -5.61232e-07    2.12081    1.68145
H    -4.41665e-07    -2.88107e-05    2.97708
