14

N    -2.32648    0.0413928    -8.18546e-06
C    -0.942947    -0.0275087    -9.30103e-06
C    -0.247488    -0.0120054    -1.24592
C    -0.247487    -0.0120242    1.2459
C    1.17354    0.000449927    -1.23217
C    1.17354    0.000431336    1.23215
C    1.85968    0.00428184    -1.02681e-05
H    -2.78398    -0.261946    -0.846487
H    -2.78398    -0.261958    0.846467
H    -0.794819    0.00172155    -2.16668
H    -0.794817    0.00168886    2.16666
H    1.72218    0.0117331    -2.15246
H    1.72219    0.0117006    2.15244
H    2.93449    0.0187624    -1.06217e-05
