 14

      N        -2.385775        -0.052305         -0.217942
      C        -0.926157        -0.040268         -0.094835
      C        -0.185728         0.114893         -1.258857
      C        -0.254307        -0.160555          1.121365
      C         1.199301         0.145455         -1.210391
      C         1.127303        -0.128053          1.164820
      C         1.857357         0.024884         -0.001944
      H        -2.681498        -0.944900          0.227744
      H        -2.706810         0.599964          0.515828
      H        -0.703367         0.212331         -2.191723
      H        -0.816044        -0.280559          2.028267
      H         1.761563         0.266101         -2.116684
      H         1.633799        -0.222967          2.106930
      H         2.930157         0.049909          0.033768
