 14

      N        -0.002568        -0.001814         -2.308942
      C        -0.001803        -0.002361         -0.916627
      C         0.056038        -1.228360         -0.219211
      C        -0.058877         1.223090         -0.218185
      C         0.100839        -1.211387          1.153931
      C        -0.102169         1.205038          1.154992
      C        -0.000289        -0.003443          1.839066
      H        -0.790352        -0.406827         -2.845770
      H         0.784626         0.403621         -2.846317
      H         0.112000        -2.142166         -0.770754
      H        -0.115445         2.137329         -0.768948
      H         0.199254        -2.128664          1.699021
      H        -0.199985         2.121886          1.700911
      H         0.000301        -0.003865          2.912570
