14

N    -0.0292278    -2.34171    -1.58147e-05
C    0.0276568    -1.0208    -1.63314e-05
C    -1.1772    -0.253118    -1.37491e-05
C    1.22439    -0.225507    -1.93459e-05
C    -1.16932    1.17343    -1.41826e-05
C    1.18729    1.20622    -1.967e-05
C    0.00444792    1.90996    -1.71274e-05
H    -1.23046    -3.05999    -1.28126e-05
H    0.815698    -2.9064    -1.76136e-05
H    -2.11057    -0.776112    -1.14261e-05
H    2.17552    -0.711886    -2.1413e-05
H    -2.12127    1.67352    -1.21138e-05
H    2.12645    1.72738    -2.19978e-05
H    -0.0117505    2.97911    -1.74038e-05
