14

N    -0.0328475    -2.34132    -0.000512477
C    0.0275748    -1.02346    -0.000531556
C    -1.17895    -0.253014    -0.000444882
C    1.22492    -0.225453    -0.000635671
C    -1.1703    1.17275    -0.000461142
C    1.18734    1.206    -0.000649416
C    0.00397817    1.90953    -0.000562799
H    -1.26183    -3.08079    -0.000406563
H    0.814943    -2.90297    -0.000573762
H    -2.11116    -0.77764    -0.000364225
H    2.17675    -0.71137    -0.000705802
H    -2.12176    1.67383    -0.000391215
H    2.12582    1.72878    -0.000729541
H    -0.0126285    2.97871    -0.000573203
