14

N    -0.0301731    -2.33802    -1.59989e-05
C    0.0315843    -1.0212    -1.60075e-05
C    -1.17624    -0.253562    -1.40029e-05
C    1.2286    -0.223681    -1.90064e-05
C    -1.16952    1.17159    -1.3999e-05
C    1.18911    1.20734    -2.00053e-05
C    0.00391643    1.90872    -1.70003e-05
H    -1.26427    -3.0698    -1.29838e-05
H    0.809962    -2.91064    -1.7992e-05
H    -2.1067    -0.781576    -1.10088e-05
H    2.1792    -0.7118    -2.10004e-05
H    -2.12185    1.67082    -1.19954e-05
H    2.12632    1.73251    -2.20041e-05
H    -0.0143954    2.97763    -1.69974e-05
