14

N    -0.0249153    -2.34612    -0.000496853
C    0.034319    -1.02746    -0.00115028
C    -1.17727    -0.260573    -0.00207101
C    1.2281    -0.22941    -0.00104323
C    -1.17288    1.16567    -0.00280362
C    1.18364    1.20221    -0.0017998
C    -0.00225985    1.90352    -0.0026756
H    -1.27334    -3.02743    -0.000687709
H    0.827265    -2.90134    0.000158921
H    -2.11063    -0.77941    -0.00220886
H    2.18413    -0.708464    -0.000381642
H    -2.12581    1.662    -0.00347277
H    2.12034    1.72795    -0.00166406
H    -0.0199924    2.9722    -0.00323366
