14

N    -0.0259266    -2.33733    0
C    0.0346588    -1.02031    0
C    -1.17401    -0.253881    0
C    1.23067    -0.221795    0
C    -1.16844    1.17493    0
C    1.19003    1.20558    0
C    0.00169683    1.90965    0
H    -1.25917    -3.06705    0
H    0.816347    -2.90716    0
H    -2.10437    -0.782061    0
H    2.18144    -0.709001    0
H    -2.12197    1.6716    0
H    2.1261    1.73295    0
H    -0.0148684    2.97868    0
