 14

      N         0.026552         0.000000         -2.280532
      C         0.007970         0.000000         -0.941300
      C         0.006101        -1.239030         -0.223326
      C         0.006101         1.239030         -0.223326
      C        -0.000602        -1.219615          1.148877
      C        -0.000602         1.219615          1.148877
      C        -0.004393        -0.000000          1.841414
      H        -0.023868        -0.881057         -2.803439
      H        -0.023868         0.881057         -2.803439
      H         0.010939        -2.157624         -0.770547
      H         0.010939         2.157624         -0.770547
      H        -0.002972        -2.141048          1.695834
      H        -0.002972         2.141048          1.695834
      H        -0.009329        -0.000000          2.914024
