14

N    -2.97668e-05    -3.73236e-05    -2.27365
C    -2.72614e-05    -3.49546e-05    -0.943571
C    -2.11467e-05    -1.23916    -0.217807
C    -3.06417e-05    1.2391    -0.217811
C    -1.8654e-05    -1.21877    1.1468
C    -2.79928e-05    1.21871    1.14679
C    -2.20126e-05    -2.99923e-05    1.84259
H    -2.74175e-05    -0.877148    -2.81048
H    -3.41383e-05    0.877072    -2.81048
H    -1.86615e-05    -2.15777    -0.766824
H    -3.51956e-05    2.1577    -0.766831
H    -1.40874e-05    -2.14273    1.69176
H    -3.05064e-05    2.14267    1.69175
H    -1.99902e-05    -2.80805e-05    2.91609
