14

N    -4.63335e-08    -7.68543e-05    -2.35174
C    -9.58448e-08    7.22547e-05    -1.00728
C    -1.24539e-07    -1.19156    -0.253139
C    -1.13449e-07    1.19187    -0.253404
C    -1.68724e-07    -1.1745    1.18012
C    -1.57177e-07    1.17513    1.17986
C    -1.83776e-07    0.000394446    1.89766
H    -2.99531e-08    -0.868022    -2.87715
H    -2.21915e-08    0.867752    -2.87735
H    -1.14924e-07    -2.13963    -0.750085
H    -9.37675e-08    2.13983    -0.75056
H    -1.87703e-07    -2.12418    1.68336
H    -1.66027e-07    2.12492    1.68289
H    -2.13747e-07    0.000513006    2.96659
