 14

      N        -2.316952        -0.030327         -0.006778
      C        -0.938583        -0.054822         -0.006250
      C        -0.239641        -0.031036         -1.250055
      C        -0.240622        -0.032610          1.238135
      C         1.170217        -0.002007         -1.233591
      C         1.169249        -0.003561          1.222819
      C         1.859678         0.009347         -0.005106
      H        -2.784068        -0.255586         -0.884525
      H        -2.784760        -0.256696          0.870314
      H        -0.787466        -0.031989         -2.169461
      H        -0.789172        -0.034727          2.157107
      H         1.718097         0.011101         -2.153865
      H         1.716403         0.008382          2.143541
      H         2.932889         0.032334         -0.004669
