14

N    -2.38514    -0.0715114    -0.21982
C    -0.927955    -0.0442335    -0.0926801
C    -0.185916    0.11589    -1.25511
C    -0.253177    -0.169102    1.12006
C    1.20058    0.150964    -1.21067
C    1.12669    -0.133602    1.15932
C    1.85755    0.0261916    -0.00307534
H    -2.67526    -0.931914    0.280107
H    -2.72072    0.629359    0.466154
H    -0.695076    0.213092    -2.19521
H    -0.816113    -0.293323    2.02497
H    1.76324    0.27548    -2.11811
H    1.63229    -0.231013    2.10031
H    2.93023    0.0522374    0.0404573
