14

N    -2.37791    -0.0711737    -0.220864
C    -0.924075    -0.0450718    -0.0846832
C    -0.183093    0.115768    -1.25338
C    -0.254305    -0.169516    1.12327
C    1.19951    0.15099    -1.21114
C    1.12848    -0.133837    1.16172
C    1.85765    0.026316    -0.00409508
H    -2.67764    -0.931662    0.269235
H    -2.72316    0.631535    0.455512
H    -0.701815    0.211701    -2.18517
H    -0.816573    -0.293748    2.02843
H    1.75759    0.275523    -2.11984
H    1.63681    -0.230915    2.10058
H    2.9298    0.0526151    0.0371765
