14

N    -2.37991    -0.0722816    -0.224007
C    -0.925031    -0.0463435    -0.0860741
C    -0.184185    0.114691    -1.2535
C    -0.254753    -0.171225    1.12308
C    1.19926    0.149928    -1.21086
C    1.12709    -0.135573    1.16185
C    1.85692    0.0250437    -0.00476997
H    -2.67695    -0.933508    0.269744
H    -2.72253    0.630046    0.456494
H    -0.70245    0.210914    -2.18561
H    -0.816785    -0.295723    2.02825
H    1.75715    0.274732    -2.11962
H    1.63581    -0.232873    2.10065
H    2.92907    0.0512621    0.0374053
