14

N    -7.19796e-08    -1.22198e-07    -2.27148
C    -7.81511e-08    -1.13762e-07    -0.942375
C    -6.9309e-08    -1.23995    -0.218799
C    -9.37318e-08    1.23995    -0.218799
C    -6.93016e-08    -1.21869    1.14592
C    -9.3191e-08    1.21869    1.14592
C    -8.19889e-08    -9.5696e-08    1.84159
H    -6.1226e-08    -0.874021    -2.80949
H    -7.77427e-08    0.874021    -2.80949
H    -5.97459e-08    -2.16    -0.764865
H    -1.02188e-07    2.16    -0.764865
H    -5.94903e-08    -2.14257    1.69031
H    -1.01411e-07    2.14257    1.69031
H    -8.31446e-08    -8.87097e-08    2.91453
