14

N    -2.35236    0.0915223    -2.57229e-10
C    -0.935058    -0.00517344    -5.80578e-10
C    -0.225918    -0.00722645    -1.20155
C    -0.225918    -0.00722644    1.20155
C    1.15841    -0.00174102    -1.19475
C    1.15841    -0.00174102    1.19476
C    1.85989    0.00492369    -1.34985e-09
H    -2.74755    -0.365948    -0.824291
H    -2.74755    -0.365947    0.824291
H    -0.757619    -0.0187848    -2.13365
H    -0.757619    -0.0187838    2.13365
H    1.69035    -0.000455778    -2.12799
H    1.69035    -0.000454781    2.128
H    2.93334    0.0173866    -1.5473e-09
