14

N    -0.0634524    -2.31506    0
C    0.0145237    -0.962166    0
C    -1.21043    -0.225594    0
C    1.23157    -0.211444    0
C    -1.20504    1.14235    0
C    1.21685    1.15563    0
C    0.00232428    1.84573    0
H    -5.04764    -5.6554    0
H    0.904299    -2.68714    0
H    -2.13054    -0.776394    0
H    2.16824    -0.737938    0
H    -2.13318    1.68222    0
H    2.13919    1.70672    0
H    -0.00308925    2.91895    0
