 14

      N         0.046639        -2.290015         -0.000000
      C         0.196734        -0.967999         -0.000000
      C        -1.106133        -0.285090         -0.000000
      C         1.335023        -0.098635          0.000000
      C        -1.236707         1.085253         -0.000000
      C         1.226421         1.248099          0.000000
      C        -0.069299         1.860879          0.000000
      H        -5.115135        -5.348829          0.000000
      H         0.677011        -3.142990         -0.000000
      H        -2.026892        -0.880522         -0.000000
      H         2.240732        -0.646593          0.000000
      H        -2.218727         1.530789         -0.000000
      H         2.081113         1.892429          0.000000
      H        -0.147147         2.923689          0.000000
