 14

      N        -2.333257         0.082490         -0.000070
      C        -0.941725        -0.013870         -0.000068
      C        -0.250164         0.002839         -1.245639
      C        -0.250203         0.002327          1.245533
      C         1.175969         0.004307         -1.234174
      C         1.175930         0.003799          1.234113
      C         1.860689         0.000957         -0.000020
      H        -2.762067        -0.319208         -0.829861
      H        -2.762093        -0.319549          0.829543
      H        -0.798885         0.020329         -2.164836
      H        -0.798953         0.019439          2.164719
      H         1.724869         0.007314         -2.153707
      H         1.724801         0.006428          2.153664
      H         2.934504         0.003653         -0.000003
