 14

      N        -0.030785        -2.283971          0.000000
      C         0.013434        -0.949152          0.000000
      C        -1.220660        -0.224864          0.000000
      C         1.238018        -0.211460          0.000000
      C        -1.209583         1.140479          0.000000
      C         1.214794         1.154201          0.000000
      C        -0.001713         1.844519          0.000000
      H        -1.157786        -2.950288          0.000000
      H         0.870628        -2.796711          0.000000
      H        -2.133663        -0.779197          0.000000
      H         2.164532        -0.747833          0.000000
      H        -2.137176         1.679739          0.000000
      H         2.135794         1.704185          0.000000
      H        -0.006923         2.917226          0.000000
