14

N    -3.84755e-05    -3.33705e-05    -2.32212
C    -3.82602e-05    -3.91396e-05    -0.934816
C    -3.19378e-05    -1.20346    -0.214079
C    -4.43587e-05    1.20338    -0.214069
C    -3.17763e-05    -1.19257    1.17319
C    -4.40816e-05    1.19247    1.1732
C    -3.7813e-05    -5.08443e-05    1.8803
H    -3.40695e-05    -0.868498    -2.83092
H    -4.30392e-05    0.868436    -2.83091
H    -2.71826e-05    -2.14183    -0.737243
H    -4.92857e-05    2.14175    -0.737225
H    -2.68709e-05    -2.12767    1.70266
H    -4.8824e-05    2.12757    1.70268
H    -3.76382e-05    -5.53081e-05    2.9539
