14

N    -1.27164e-06    -1.31341e-06    -2.32218
C    -1.18551e-06    -1.11773e-06    -0.938367
C    -9.22545e-07    -1.23482    -0.209592
C    -1.35543e-06    1.23482    -0.209593
C    -8.41285e-07    -1.22709    1.15153
C    -1.26994e-06    1.22709    1.15153
C    -1.01065e-06    -7.23847e-07    1.83722
H    -0.868469    -1.53938e-06    -2.84497
H    0.868466    -1.23516e-06    -2.84497
H    -8.00931e-07    -2.14484    -0.771597
H    -1.5509e-06    2.14484    -0.771598
H    -6.48897e-07    -2.1424    1.70768
H    -1.39763e-06    2.1424    1.70768
H    -9.40492e-07    -5.71381e-07    2.91078
