14

N    -0.000434406    -0.000645206    -2.3213
C    -0.000425855    -0.000676038    -0.937082
C    -0.000328724    -1.23539    -0.209349
C    -0.000513992    1.234    -0.209294
C    -0.000320865    -1.22792    1.15264
C    -0.00050501    1.22647    1.15269
C    -0.000408702    -0.000737846    1.83778
H    -0.873445    -0.000698939    -2.84949
H    0.87257    -0.000567943    -2.84951
H    -0.000264036    -2.14399    -0.772692
H    -0.000585645    2.14263    -0.772596
H    -0.000248769    -2.14298    1.7093
H    -0.000570221    2.14151    1.7094
H    -0.000402067    -0.000761753    2.91109
