14

N    -0.0720921    -2.31954    -0.00434157
C    0.00751991    -0.96725    -0.00446983
C    -1.21852    -0.230053    -0.00387728
C    1.22373    -0.222309    -0.00515229
C    -1.21377    1.13262    -0.00396713
C    1.20955    1.14711    -0.00523269
C    -0.00499977    1.83797    -0.00464316
H    -5.06039    -5.65374    -0.00152452
H    0.919292    -2.63662    -0.00483859
H    -2.13376    -0.785999    -0.00336401
H    2.15563    -0.74849    -0.00560487
H    -2.1402    1.67344    -0.00351834
H    2.13181    1.69827    -0.00574931
H    -0.00470244    2.912    -0.00471218
