 14

      N        -2.368578         0.083224         -0.124899
      C        -0.928979         0.009240         -0.056224
      C        -0.198374         0.106024         -1.238818
      C        -0.242956        -0.078275          1.152236
      C         1.183759         0.087335         -1.209116
      C         1.143207        -0.069736          1.174816
      C         1.861180         0.006395         -0.003280
      H        -2.737149        -0.837986         -0.404086
      H        -2.713354         0.218025          0.834186
      H        -0.720184         0.203463         -2.170405
      H        -0.790898        -0.160860          2.071609
      H         1.734592         0.155560         -2.128194
      H         1.657763        -0.133345          2.115188
      H         2.934463         0.005279          0.015283
